Test_Network/condensed/network_5/Feeder_1/LinesUnq.txt
New Line.LINE51_1 Bus1=51_1 Bus2=51_2 phases=3 Linecode=5c_.06 Length=0.25109 Units=m
New Line.LINE51_2 Bus1=51_2 Bus2=51_3 phases=3 Linecode=5c_.06 Length=0.048466 Units=m
New Line.LINE51_3 Bus1=51_3 Bus2=51_4 phases=3 Linecode=5c_.06 Length=0.054999 Units=m
New Line.LINE51_4 Bus1=51_4 Bus2=51_5 phases=3 Linecode=5c_.06 Length=0.048167 Units=m
New Line.LINE51_5 Bus1=51_5 Bus2=51_6 phases=3 Linecode=5c_.06 Length=0.046141 Units=m
New Line.LINE51_6 Bus1=51_6 Bus2=51_7 phases=3 Linecode=5c_.06 Length=0.043463 Units=m
New Line.LINE51_7 Bus1=51_7 Bus2=51_8 phases=3 Linecode=5c_.06 Length=0.061659 Units=m
New Line.LINE51_8 Bus1=51_8 Bus2=51_9 phases=3 Linecode=5c_.06 Length=0.030017 Units=m
New Line.LINE51_9 Bus1=51_9 Bus2=51_10 phases=3 Linecode=5c_.06 Length=0.036223 Units=m
New Line.LINE51_10 Bus1=51_10 Bus2=51_11 phases=3 Linecode=5c_.06 Length=3.3729 Units=m
New Line.LINE51_11 Bus1=51_11 Bus2=51_12 phases=3 Linecode=5c_.06 Length=0.090378 Units=m
New Line.LINE51_12 Bus1=51_12 Bus2=51_13 phases=3 Linecode=5c_.06 Length=0.08071 Units=m
New Line.LINE51_13 Bus1=51_13 Bus2=51_14 phases=3 Linecode=5c_.06 Length=0.082806 Units=m
New Line.LINE51_14 Bus1=51_14 Bus2=51_15 phases=3 Linecode=5c_.06 Length=0.49759 Units=m
New Line.LINE51_15 Bus1=51_15 Bus2=51_16 phases=3 Linecode=5c_.06 Length=2.7717 Units=m
New Line.LINE51_16 Bus1=51_16 Bus2=51_17 phases=3 Linecode=5c_.06 Length=2.2246 Units=m
New Line.LINE51_17 Bus1=51_17 Bus2=51_18 phases=3 Linecode=5c_.06 Length=2.5079 Units=m
New Line.LINE51_18 Bus1=51_18 Bus2=51_19 phases=3 Linecode=5c_.06 Length=1.1208 Units=m
New Line.LINE51_19 Bus1=51_19 Bus2=51_20 phases=3 Linecode=5c_.06 Length=9.9483 Units=m
New Line.LINE51_20 Bus1=51_20 Bus2=51_21 phases=3 Linecode=5c_.06 Length=0.60681 Units=m
New Line.LINE51_21 Bus1=51_21 Bus2=51_22 phases=3 Linecode=5c_.06 Length=0.37184 Units=m
New Line.LINE51_22 Bus1=51_22 Bus2=51_23 phases=3 Linecode=5c_.06 Length=0.52667 Units=m
New Line.LINE51_23 Bus1=51_23 Bus2=51_24 phases=3 Linecode=5c_.06 Length=0.077877 Units=m
New Line.LINE51_24 Bus1=51_24 Bus2=51_25 phases=3 Linecode=5c_.06 Length=0.1005 Units=m
New Line.LINE51_25 Bus1=51_25 Bus2=51_26 phases=3 Linecode=5c_.06 Length=0.13665 Units=m
New Line.LINE51_26 Bus1=51_26 Bus2=51_27 phases=3 Linecode=5c_.06 Length=0.17021 Units=m
New Line.LINE51_27 Bus1=51_27 Bus2=51_28 phases=3 Linecode=5c_.06 Length=0.09586 Units=m
New Line.LINE51_28 Bus1=51_28 Bus2=51_29 phases=3 Linecode=5c_.06 Length=0.073825 Units=m
New Line.LINE51_29 Bus1=51_29 Bus2=51_30 phases=3 Linecode=5c_.06 Length=0.11507 Units=m
New Line.LINE51_30 Bus1=51_30 Bus2=51_31 phases=3 Linecode=5c_.06 Length=0.28185 Units=m
New Line.LINE51_31 Bus1=51_31 Bus2=51_32 phases=3 Linecode=5c_.06 Length=0.59096 Units=m
New Line.LINE51_32 Bus1=51_32 Bus2=51_33 phases=3 Linecode=5c_.06 Length=0.40048 Units=m
New Line.LINE51_33 Bus1=51_33 Bus2=51_34 phases=3 Linecode=5c_.1 Length=3.069 Units=m
New Line.LINE51_34 Bus1=51_34 Bus2=51_35 phases=3 Linecode=2c_.0145 Length=0.38009 Units=m
New Line.LINE51_35 Bus1=51_34 Bus2=51_36 phases=3 Linecode=5c_.1 Length=13.3501 Units=m
New Line.LINE51_36 Bus1=51_35 Bus2=51_37 phases=3 Linecode=2c_.0145 Length=0.17214 Units=m
New Line.LINE51_37 Bus1=51_36 Bus2=51_38 phases=3 Linecode=5c_.04 Length=0.28954 Units=m
New Line.LINE51_38 Bus1=51_36 Bus2=51_39 phases=3 Linecode=5c_.1 Length=1.0184 Units=m
New Line.LINE51_39 Bus1=51_37 Bus2=51_40 phases=3 Linecode=2c_.0145 Length=0.1228 Units=m
New Line.LINE51_40 Bus1=51_38 Bus2=51_41 phases=3 Linecode=5c_.04 Length=0.23424 Units=m
New Line.LINE51_41 Bus1=51_39 Bus2=51_42 phases=3 Linecode=5c_.1 Length=0.23902 Units=m
New Line.LINE51_42 Bus1=51_40 Bus2=51_43 phases=3 Linecode=2c_.0145 Length=0.097417 Units=m
New Line.LINE51_43 Bus1=51_41 Bus2=51_44 phases=3 Linecode=5c_.04 Length=0.35396 Units=m
New Line.LINE51_44 Bus1=51_42 Bus2=51_45 phases=3 Linecode=5c_.1 Length=0.15403 Units=m
New Line.LINE51_45 Bus1=51_43 Bus2=51_46 phases=3 Linecode=2c_.0145 Length=0.10521 Units=m
New Line.LINE51_46 Bus1=51_44 Bus2=51_47 phases=3 Linecode=5c_.04 Length=0.25602 Units=m
New Line.LINE51_47 Bus1=51_45 Bus2=51_48 phases=3 Linecode=5c_.1 Length=0.10402 Units=m
New Line.LINE51_48 Bus1=51_46 Bus2=51_49 phases=3 Linecode=2c_.0145 Length=7.2866 Units=m
New Line.LINE51_49 Bus1=51_47 Bus2=51_50 phases=3 Linecode=5c_.04 Length=0.55258 Units=m
New Line.LINE51_50 Bus1=51_48 Bus2=51_51 phases=3 Linecode=5c_.1 Length=0.1333 Units=m
New Line.LINE51_51 Bus1=51_49 Bus2=51_52 phases=3 Linecode=2c_.0145 Length=6.2443 Units=m
New Line.LINE51_52 Bus1=51_50 Bus2=51_53 phases=3 Linecode=5c_.04 Length=0.5228 Units=m
New Line.LINE51_53 Bus1=51_51 Bus2=51_54 phases=3 Linecode=5c_.1 Length=0.19167 Units=m
New Line.LINE51_54 Bus1=51_52 Bus2=51_55 phases=3 Linecode=2c_.0145 Length=3.8601 Units=m
New Line.LINE51_55 Bus1=51_52 Bus2=51_56 phases=3 Linecode=2c_.0145 Length=0.4327 Units=m
New Line.LINE51_56 Bus1=51_53 Bus2=51_57 phases=3 Linecode=5c_.04 Length=0.24286 Units=m
New Line.LINE51_57 Bus1=51_54 Bus2=51_58 phases=3 Linecode=5c_.1 Length=0.2103 Units=m
New Line.LINE51_58 Bus1=51_56 Bus2=51_59 phases=3 Linecode=2c_.0145 Length=0.069894 Units=m
New Line.LINE51_59 Bus1=51_57 Bus2=51_60 phases=3 Linecode=5c_.04 Length=0.17204 Units=m
New Line.LINE51_60 Bus1=51_58 Bus2=51_61 phases=3 Linecode=5c_.1 Length=0.28006 Units=m
New Line.LINE51_61 Bus1=51_59 Bus2=51_62 phases=3 Linecode=2c_.0145 Length=0.058 Units=m
New Line.LINE51_62 Bus1=51_60 Bus2=51_63 phases=3 Linecode=5c_.04 Length=0.38774 Units=m
New Line.LINE51_63 Bus1=51_61 Bus2=51_64 phases=3 Linecode=5c_.1 Length=0.1063 Units=m
New Line.LINE51_64 Bus1=51_62 Bus2=51_65 phases=3 Linecode=2c_.0145 Length=0.041 Units=m
New Line.LINE51_65 Bus1=51_63 Bus2=51_66 phases=3 Linecode=5c_.04 Length=0.37353 Units=m
New Line.LINE51_66 Bus1=51_64 Bus2=51_67 phases=3 Linecode=5c_.1 Length=0.10791 Units=m
New Line.LINE51_67 Bus1=51_65 Bus2=51_68 phases=3 Linecode=2c_.0145 Length=0.14831 Units=m
New Line.LINE51_68 Bus1=51_66 Bus2=51_69 phases=3 Linecode=5c_.04 Length=0.64039 Units=m
New Line.LINE51_69 Bus1=51_67 Bus2=51_70 phases=3 Linecode=5c_.1 Length=5.6452 Units=m
New Line.LINE51_70 Bus1=51_68 Bus2=51_71 phases=3 Linecode=2c_.0145 Length=4.6564 Units=m
New Line.LINE51_71 Bus1=51_69 Bus2=51_72 phases=3 Linecode=5c_.04 Length=1.6055 Units=m
New Line.LINE51_72 Bus1=51_70 Bus2=51_73 phases=3 Linecode=5c_.1 Length=3.1266 Units=m
New Line.LINE51_73 Bus1=51_71 Bus2=51_74 phases=3 Linecode=2c_.0145 Length=0.12932 Units=m
New Line.LINE51_74 Bus1=51_72 Bus2=51_75 phases=3 Linecode=5c_.04 Length=4.8539 Units=m
New Line.LINE51_75 Bus1=51_74 Bus2=51_76 phases=3 Linecode=2c_.0145 Length=0.09868 Units=m
New Line.LINE51_76 Bus1=51_75 Bus2=51_77 phases=3 Linecode=5c_.04 Length=2.477 Units=m
New Line.LINE51_77 Bus1=51_76 Bus2=51_78 phases=3 Linecode=2c_.0145 Length=0.11727 Units=m
New Line.LINE51_78 Bus1=51_77 Bus2=51_79 phases=3 Linecode=4_XC Length=2.0079 Units=m
New Line.LINE51_79 Bus1=51_77 Bus2=51_80 phases=3 Linecode=5c_.04 Length=0.92265 Units=m
New Line.LINE51_80 Bus1=51_78 Bus2=51_81 phases=3 Linecode=2c_.0145 Length=0.19277 Units=m
New Line.LINE51_81 Bus1=51_79 Bus2=51_82 phases=3 Linecode=4_XC Length=0.18357 Units=m
New Line.LINE51_82 Bus1=51_80 Bus2=51_83 phases=3 Linecode=5c_.04 Length=3.0745 Units=m
New Line.LINE51_83 Bus1=51_81 Bus2=51_84 phases=3 Linecode=2c_.0145 Length=0.15312 Units=m
New Line.LINE51_84 Bus1=51_82 Bus2=51_85 phases=3 Linecode=4_XC Length=0.16926 Units=m
New Line.LINE51_85 Bus1=51_83 Bus2=51_86 phases=3 Linecode=5c_.04 Length=5.8298 Units=m
New Line.LINE51_86 Bus1=51_84 Bus2=51_87 phases=3 Linecode=2c_.0145 Length=5.3411 Units=m
New Line.LINE51_87 Bus1=51_85 Bus2=51_88 phases=3 Linecode=4_XC Length=0.12822 Units=m
New Line.LINE51_88 Bus1=51_86 Bus2=51_89 phases=3 Linecode=5c_.04 Length=3.6272 Units=m
New Line.LINE51_89 Bus1=51_88 Bus2=51_90 phases=3 Linecode=4_XC Length=0.19516 Units=m
New Line.LINE51_90 Bus1=51_89 Bus2=51_91 phases=3 Linecode=5c_.04 Length=0.081249 Units=m
New Line.LINE51_91 Bus1=51_89 Bus2=51_92 phases=3 Linecode=5c_.04 Length=0.44002 Units=m
New Line.LINE51_92 Bus1=51_91 Bus2=51_93 phases=3 Linecode=5c_.04 Length=0.085843 Units=m
New Line.LINE51_93 Bus1=51_92 Bus2=51_94 phases=3 Linecode=5c_.04 Length=5.3325 Units=m
New Line.LINE51_94 Bus1=51_93 Bus2=51_95 phases=3 Linecode=5c_.04 Length=0.086 Units=m
New Line.LINE51_95 Bus1=51_94 Bus2=51_96 phases=3 Linecode=2c_.0145 Length=6.8778 Units=m
New Line.LINE51_96 Bus1=51_94 Bus2=51_97 phases=3 Linecode=5c_.04 Length=5.3315 Units=m
New Line.LINE51_97 Bus1=51_95 Bus2=51_98 phases=3 Linecode=5c_.04 Length=0.086313 Units=m
New Line.LINE51_98 Bus1=51_96 Bus2=51_99 phases=3 Linecode=2c_.0145 Length=5.3558 Units=m
New Line.LINE51_99 Bus1=51_96 Bus2=51_100 phases=3 Linecode=2c_.0145 Length=0.50818 Units=m
New Line.LINE51_100 Bus1=51_97 Bus2=51_101 phases=3 Linecode=5c_.04 Length=5.0837 Units=m
New Line.LINE51_101 Bus1=51_98 Bus2=51_102 phases=3 Linecode=5c_.04 Length=0.085704 Units=m
New Line.LINE51_102 Bus1=51_100 Bus2=51_103 phases=3 Linecode=2c_.0145 Length=0.14723 Units=m
New Line.LINE51_103 Bus1=51_101 Bus2=51_104 phases=3 Linecode=4_XC Length=0.067465 Units=m
New Line.LINE51_104 Bus1=51_101 Bus2=51_105 phases=3 Linecode=5c_.04 Length=2.1036 Units=m
New Line.LINE51_105 Bus1=51_102 Bus2=51_106 phases=3 Linecode=5c_.04 Length=0.086354 Units=m
New Line.LINE51_106 Bus1=51_103 Bus2=51_107 phases=3 Linecode=2c_.0145 Length=0.10046 Units=m
New Line.LINE51_107 Bus1=51_104 Bus2=51_108 phases=3 Linecode=4_XC Length=0.067365 Units=m
New Line.LINE51_108 Bus1=51_105 Bus2=51_109 phases=3 Linecode=5c_.04 Length=5.5094 Units=m
New Line.LINE51_109 Bus1=51_107 Bus2=51_110 phases=3 Linecode=2c_.0145 Length=0.080056 Units=m
New Line.LINE51_110 Bus1=51_108 Bus2=51_111 phases=3 Linecode=4_XC Length=0.06619 Units=m
New Line.LINE51_111 Bus1=51_109 Bus2=51_112 phases=3 Linecode=5c_.04 Length=0.24035 Units=m
New Line.LINE51_112 Bus1=51_110 Bus2=51_113 phases=3 Linecode=2c_.0145 Length=0.072561 Units=m
New Line.LINE51_113 Bus1=51_111 Bus2=51_114 phases=3 Linecode=4_XC Length=0.06791 Units=m
New Line.LINE51_114 Bus1=51_112 Bus2=51_115 phases=3 Linecode=5c_.04 Length=1.3626 Units=m
New Line.LINE51_115 Bus1=51_113 Bus2=51_116 phases=3 Linecode=2c_.0145 Length=0.12146 Units=m
New Line.LINE51_116 Bus1=51_114 Bus2=51_117 phases=3 Linecode=4_XC Length=0.066211 Units=m
New Line.LINE51_117 Bus1=51_116 Bus2=51_118 phases=3 Linecode=2c_.0145 Length=4.3578 Units=m
New Line.LINE51_118 Bus1=51_117 Bus2=51_119 phases=3 Linecode=4_XC Length=0.067425 Units=m
New Line.LINE51_119 Bus1=51_118 Bus2=51_120 phases=3 Linecode=2c_.0145 Length=0.1419 Units=m
New Line.LINE51_120 Bus1=51_119 Bus2=51_121 phases=3 Linecode=4_XC Length=0.067178 Units=m
New Line.LINE51_121 Bus1=51_120 Bus2=51_122 phases=3 Linecode=2c_.0145 Length=0.15284 Units=m
New Line.LINE51_122 Bus1=51_121 Bus2=51_123 phases=3 Linecode=4_XC Length=0.066852 Units=m
New Line.LINE51_123 Bus1=51_122 Bus2=51_124 phases=3 Linecode=2c_.0145 Length=0.132 Units=m
New Line.LINE51_124 Bus1=51_123 Bus2=51_125 phases=3 Linecode=4_XC Length=0.067623 Units=m
New Line.LINE51_125 Bus1=51_124 Bus2=51_126 phases=3 Linecode=2c_.0145 Length=0.17612 Units=m
New Line.LINE51_126 Bus1=51_125 Bus2=51_127 phases=3 Linecode=4_XC Length=0.06694 Units=m
New Line.LINE51_127 Bus1=51_126 Bus2=51_128 phases=3 Linecode=2c_.0145 Length=0.22769 Units=m
New Line.LINE51_128 Bus1=51_128 Bus2=51_129 phases=3 Linecode=2c_.0145 Length=0.28679 Units=m
New Line.LINE51_129 Bus1=51_129 Bus2=51_130 phases=3 Linecode=2c_.0145 Length=4.835 Units=m
