Test_Network/condensed/network_5/Feeder_2/LinesUnq.txt
New Line.LINE52_1 Bus1=52_1 Bus2=52_2 phases=3 Linecode=5c_.1 Length=0.13724 Units=m
New Line.LINE52_2 Bus1=52_2 Bus2=52_3 phases=3 Linecode=5c_.1 Length=0.051866 Units=m
New Line.LINE52_3 Bus1=52_3 Bus2=52_4 phases=3 Linecode=5c_.1 Length=0.038012 Units=m
New Line.LINE52_4 Bus1=52_4 Bus2=52_5 phases=3 Linecode=5c_.1 Length=0.044554 Units=m
New Line.LINE52_5 Bus1=52_5 Bus2=52_6 phases=3 Linecode=5c_.1 Length=0.045607 Units=m
New Line.LINE52_6 Bus1=52_6 Bus2=52_7 phases=3 Linecode=5c_.1 Length=0.06174 Units=m
New Line.LINE52_7 Bus1=52_7 Bus2=52_8 phases=3 Linecode=5c_.1 Length=0.048836 Units=m
New Line.LINE52_8 Bus1=52_8 Bus2=52_9 phases=3 Linecode=5c_.1 Length=0.037122 Units=m
New Line.LINE52_9 Bus1=52_9 Bus2=52_10 phases=3 Linecode=5c_.1 Length=0.056886 Units=m
New Line.LINE52_10 Bus1=52_10 Bus2=52_11 phases=3 Linecode=5c_.1 Length=2.8399 Units=m
New Line.LINE52_11 Bus1=52_11 Bus2=52_12 phases=3 Linecode=5c_.1 Length=0.063976 Units=m
New Line.LINE52_12 Bus1=52_12 Bus2=52_13 phases=3 Linecode=5c_.1 Length=0.043863 Units=m
New Line.LINE52_13 Bus1=52_13 Bus2=52_14 phases=3 Linecode=5c_.1 Length=0.05801 Units=m
New Line.LINE52_14 Bus1=52_14 Bus2=52_15 phases=3 Linecode=5c_.1 Length=0.051662 Units=m
New Line.LINE52_15 Bus1=52_15 Bus2=52_16 phases=3 Linecode=5c_.1 Length=0.087618 Units=m
New Line.LINE52_16 Bus1=52_16 Bus2=52_17 phases=3 Linecode=5c_.1 Length=0.40052 Units=m
New Line.LINE52_17 Bus1=52_17 Bus2=52_18 phases=3 Linecode=5c_.1 Length=0.055606 Units=m
New Line.LINE52_18 Bus1=52_18 Bus2=52_19 phases=3 Linecode=5c_.1 Length=0.062937 Units=m
New Line.LINE52_19 Bus1=52_19 Bus2=52_20 phases=3 Linecode=5c_.1 Length=0.064661 Units=m
New Line.LINE52_20 Bus1=52_20 Bus2=52_21 phases=3 Linecode=5c_.1 Length=0.063134 Units=m
New Line.LINE52_21 Bus1=52_21 Bus2=52_22 phases=3 Linecode=5c_.1 Length=0.062651 Units=m
New Line.LINE52_22 Bus1=52_22 Bus2=52_23 phases=3 Linecode=5c_.1 Length=2.6007 Units=m
New Line.LINE52_23 Bus1=52_23 Bus2=52_24 phases=3 Linecode=5c_.1 Length=2.285 Units=m
New Line.LINE52_24 Bus1=52_24 Bus2=52_25 phases=3 Linecode=5c_.1 Length=0.5019 Units=m
New Line.LINE52_25 Bus1=52_25 Bus2=52_26 phases=3 Linecode=5c_.1 Length=0.14425 Units=m
New Line.LINE52_26 Bus1=52_26 Bus2=52_27 phases=3 Linecode=5c_.1 Length=0.15513 Units=m
New Line.LINE52_27 Bus1=52_27 Bus2=52_28 phases=3 Linecode=5c_.1 Length=0.12587 Units=m
New Line.LINE52_28 Bus1=52_28 Bus2=52_29 phases=3 Linecode=5c_.1 Length=0.14785 Units=m
New Line.LINE52_29 Bus1=52_29 Bus2=52_30 phases=3 Linecode=5c_.1 Length=0.25372 Units=m
New Line.LINE52_30 Bus1=52_30 Bus2=52_31 phases=3 Linecode=5c_.1 Length=0.19625 Units=m
New Line.LINE52_31 Bus1=52_31 Bus2=52_32 phases=3 Linecode=5c_.1 Length=0.18697 Units=m
New Line.LINE52_32 Bus1=52_32 Bus2=52_33 phases=3 Linecode=5c_.06 Length=2.595 Units=m
New Line.LINE52_33 Bus1=52_33 Bus2=52_34 phases=3 Linecode=5c_.06 Length=0.65697 Units=m
New Line.LINE52_34 Bus1=52_33 Bus2=52_35 phases=3 Linecode=5c_.06 Length=2.608 Units=m
New Line.LINE52_35 Bus1=52_34 Bus2=52_36 phases=3 Linecode=5c_.06 Length=0.18303 Units=m
New Line.LINE52_36 Bus1=52_35 Bus2=52_37 phases=3 Linecode=5c_.06 Length=0.307 Units=m
New Line.LINE52_37 Bus1=52_35 Bus2=52_38 phases=3 Linecode=5c_.06 Length=2.5008 Units=m
New Line.LINE52_38 Bus1=52_36 Bus2=52_39 phases=3 Linecode=5c_.06 Length=0.14534 Units=m
New Line.LINE52_39 Bus1=52_37 Bus2=52_40 phases=3 Linecode=5c_.06 Length=0.069871 Units=m
New Line.LINE52_40 Bus1=52_38 Bus2=52_41 phases=3 Linecode=2c_.0225 Length=6.5712 Units=m
New Line.LINE52_41 Bus1=52_38 Bus2=52_42 phases=3 Linecode=5c_.06 Length=5.1316 Units=m
New Line.LINE52_42 Bus1=52_39 Bus2=52_43 phases=3 Linecode=5c_.06 Length=0.11332 Units=m
New Line.LINE52_43 Bus1=52_40 Bus2=52_44 phases=3 Linecode=5c_.06 Length=0.080007 Units=m
New Line.LINE52_44 Bus1=52_41 Bus2=52_45 phases=3 Linecode=2c_.0225 Length=6.8271 Units=m
New Line.LINE52_45 Bus1=52_42 Bus2=52_46 phases=3 Linecode=5c_.06 Length=0.87232 Units=m
New Line.LINE52_46 Bus1=52_43 Bus2=52_47 phases=3 Linecode=5c_.06 Length=0.11273 Units=m
New Line.LINE52_47 Bus1=52_44 Bus2=52_48 phases=3 Linecode=5c_.06 Length=0.073926 Units=m
New Line.LINE52_48 Bus1=52_46 Bus2=52_49 phases=3 Linecode=5c_.06 Length=8.0496 Units=m
New Line.LINE52_49 Bus1=52_47 Bus2=52_50 phases=3 Linecode=5c_.06 Length=0.13557 Units=m
New Line.LINE52_50 Bus1=52_48 Bus2=52_51 phases=3 Linecode=5c_.06 Length=0.1494 Units=m
New Line.LINE52_51 Bus1=52_49 Bus2=52_52 phases=3 Linecode=2c_.0225 Length=6.7057 Units=m
New Line.LINE52_52 Bus1=52_49 Bus2=52_53 phases=3 Linecode=5c_.06 Length=1.0862 Units=m
New Line.LINE52_53 Bus1=52_50 Bus2=52_54 phases=3 Linecode=5c_.06 Length=0.21869 Units=m
New Line.LINE52_54 Bus1=52_51 Bus2=52_55 phases=3 Linecode=5c_.06 Length=0.145 Units=m
New Line.LINE52_55 Bus1=52_52 Bus2=52_56 phases=3 Linecode=2c_.0225 Length=5.5592 Units=m
New Line.LINE52_56 Bus1=52_52 Bus2=52_57 phases=3 Linecode=2c_.0225 Length=5.5592 Units=m
New Line.LINE52_57 Bus1=52_53 Bus2=52_58 phases=3 Linecode=5c_.06 Length=0.44046 Units=m
New Line.LINE52_58 Bus1=52_53 Bus2=52_59 phases=3 Linecode=5c_.06 Length=10.4779 Units=m
New Line.LINE52_59 Bus1=52_54 Bus2=52_60 phases=3 Linecode=5c_.06 Length=0.16955 Units=m
New Line.LINE52_60 Bus1=52_55 Bus2=52_61 phases=3 Linecode=5c_.06 Length=0.12594 Units=m
New Line.LINE52_61 Bus1=52_58 Bus2=52_62 phases=3 Linecode=5c_.06 Length=0.35113 Units=m
New Line.LINE52_62 Bus1=52_59 Bus2=52_63 phases=3 Linecode=5c_.06 Length=2.1089 Units=m
New Line.LINE52_63 Bus1=52_60 Bus2=52_64 phases=3 Linecode=5c_.06 Length=0.24003 Units=m
New Line.LINE52_64 Bus1=52_61 Bus2=52_65 phases=3 Linecode=5c_.06 Length=0.12521 Units=m
New Line.LINE52_65 Bus1=52_62 Bus2=52_66 phases=3 Linecode=5c_.06 Length=0.12882 Units=m
New Line.LINE52_66 Bus1=52_63 Bus2=52_67 phases=3 Linecode=5c_.06 Length=0.22714 Units=m
New Line.LINE52_67 Bus1=52_63 Bus2=52_68 phases=3 Linecode=4c_.0145 Length=8.2989 Units=m
New Line.LINE52_68 Bus1=52_64 Bus2=52_69 phases=3 Linecode=5c_.06 Length=0.2062 Units=m
New Line.LINE52_69 Bus1=52_65 Bus2=52_70 phases=3 Linecode=5c_.06 Length=0.057983 Units=m
New Line.LINE52_70 Bus1=52_66 Bus2=52_71 phases=3 Linecode=5c_.06 Length=0.19231 Units=m
New Line.LINE52_71 Bus1=52_67 Bus2=52_72 phases=3 Linecode=5c_.06 Length=0.189 Units=m
New Line.LINE52_72 Bus1=52_68 Bus2=52_73 phases=3 Linecode=4c_.0145 Length=5.6569 Units=m
New Line.LINE52_73 Bus1=52_68 Bus2=52_74 phases=3 Linecode=4c_.0145 Length=5.6569 Units=m
New Line.LINE52_74 Bus1=52_69 Bus2=52_75 phases=3 Linecode=5c_.06 Length=0.32032 Units=m
New Line.LINE52_75 Bus1=52_70 Bus2=52_76 phases=3 Linecode=5c_.06 Length=0.064195 Units=m
New Line.LINE52_76 Bus1=52_71 Bus2=52_77 phases=3 Linecode=5c_.06 Length=0.20728 Units=m
New Line.LINE52_77 Bus1=52_72 Bus2=52_78 phases=3 Linecode=5c_.06 Length=0.38449 Units=m
New Line.LINE52_78 Bus1=52_75 Bus2=52_79 phases=3 Linecode=5c_.06 Length=0.17929 Units=m
New Line.LINE52_79 Bus1=52_76 Bus2=52_80 phases=3 Linecode=5c_.06 Length=0.16598 Units=m
New Line.LINE52_80 Bus1=52_77 Bus2=52_81 phases=3 Linecode=5c_.06 Length=0.15704 Units=m
New Line.LINE52_81 Bus1=52_78 Bus2=52_82 phases=3 Linecode=5c_.06 Length=0.6326 Units=m
New Line.LINE52_82 Bus1=52_80 Bus2=52_83 phases=3 Linecode=5c_.06 Length=0.15926 Units=m
New Line.LINE52_83 Bus1=52_81 Bus2=52_84 phases=3 Linecode=5c_.06 Length=0.29421 Units=m
New Line.LINE52_84 Bus1=52_82 Bus2=52_85 phases=3 Linecode=5c_.06 Length=4.2063 Units=m
New Line.LINE52_85 Bus1=52_83 Bus2=52_86 phases=3 Linecode=5c_.06 Length=0.11535 Units=m
New Line.LINE52_86 Bus1=52_84 Bus2=52_87 phases=3 Linecode=5c_.06 Length=0.42951 Units=m
New Line.LINE52_87 Bus1=52_85 Bus2=52_88 phases=3 Linecode=5c_.06 Length=4.7994 Units=m
New Line.LINE52_88 Bus1=52_86 Bus2=52_89 phases=3 Linecode=5c_.06 Length=0.20762 Units=m
New Line.LINE52_89 Bus1=52_87 Bus2=52_90 phases=3 Linecode=5c_.06 Length=0.41268 Units=m
New Line.LINE52_90 Bus1=52_88 Bus2=52_91 phases=3 Linecode=5c_.06 Length=13.7961 Units=m
New Line.LINE52_91 Bus1=52_88 Bus2=52_92 phases=3 Linecode=5c_.06 Length=2.5343 Units=m
New Line.LINE52_92 Bus1=52_90 Bus2=52_93 phases=3 Linecode=5c_.06 Length=0.28194 Units=m
New Line.LINE52_93 Bus1=52_91 Bus2=52_94 phases=3 Linecode=5c_.06 Length=2.5967 Units=m
New Line.LINE52_94 Bus1=52_92 Bus2=52_95 phases=3 Linecode=5c_.06 Length=1.3137 Units=m
New Line.LINE52_95 Bus1=52_93 Bus2=52_96 phases=3 Linecode=5c_.06 Length=0.1876 Units=m
New Line.LINE52_96 Bus1=52_94 Bus2=52_97 phases=3 Linecode=5c_.06 Length=0.35562 Units=m
New Line.LINE52_97 Bus1=52_95 Bus2=52_98 phases=3 Linecode=2c_.0145 Length=8.6235 Units=m
New Line.LINE52_98 Bus1=52_95 Bus2=52_99 phases=3 Linecode=5c_.06 Length=5.3315 Units=m
New Line.LINE52_99 Bus1=52_96 Bus2=52_100 phases=3 Linecode=5c_.06 Length=0.11955 Units=m
New Line.LINE52_100 Bus1=52_97 Bus2=52_101 phases=3 Linecode=5c_.06 Length=0.10216 Units=m
New Line.LINE52_101 Bus1=52_98 Bus2=52_102 phases=3 Linecode=2c_.0145 Length=4.0682 Units=m
New Line.LINE52_102 Bus1=52_99 Bus2=52_103 phases=3 Linecode=4c_.0145 Length=8.9794 Units=m
New Line.LINE52_103 Bus1=52_99 Bus2=52_104 phases=3 Linecode=5c_.06 Length=9.7431 Units=m
New Line.LINE52_104 Bus1=52_100 Bus2=52_105 phases=3 Linecode=5c_.06 Length=0.2452 Units=m
New Line.LINE52_105 Bus1=52_101 Bus2=52_106 phases=3 Linecode=5c_.06 Length=0.14767 Units=m
New Line.LINE52_106 Bus1=52_103 Bus2=52_107 phases=3 Linecode=25_SAC_XC Length=4.4241 Units=m
New Line.LINE52_107 Bus1=52_104 Bus2=52_108 phases=3 Linecode=5c_.06 Length=2.3135 Units=m
New Line.LINE52_108 Bus1=52_105 Bus2=52_109 phases=3 Linecode=5c_.06 Length=0.32006 Units=m
New Line.LINE52_109 Bus1=52_106 Bus2=52_110 phases=3 Linecode=5c_.06 Length=0.24892 Units=m
New Line.LINE52_110 Bus1=52_108 Bus2=52_111 phases=3 Linecode=16_PSC Length=1.7838 Units=m
New Line.LINE52_111 Bus1=52_108 Bus2=52_112 phases=3 Linecode=5c_.06 Length=6.159 Units=m
New Line.LINE52_112 Bus1=52_110 Bus2=52_113 phases=3 Linecode=5c_.06 Length=0.73866 Units=m
New Line.LINE52_113 Bus1=52_111 Bus2=52_114 phases=3 Linecode=16_PSC Length=5.8541 Units=m
New Line.LINE52_114 Bus1=52_112 Bus2=52_115 phases=3 Linecode=5c_.06 Length=2.1959 Units=m
New Line.LINE52_115 Bus1=52_113 Bus2=52_116 phases=3 Linecode=5c_.06 Length=0.60563 Units=m
New Line.LINE52_116 Bus1=52_114 Bus2=52_117 phases=3 Linecode=16_PSC Length=0.74793 Units=m
New Line.LINE52_117 Bus1=52_115 Bus2=52_118 phases=3 Linecode=5c_.06 Length=2.6624 Units=m
New Line.LINE52_118 Bus1=52_116 Bus2=52_119 phases=3 Linecode=5c_.06 Length=0.63096 Units=m
New Line.LINE52_119 Bus1=52_117 Bus2=52_120 phases=3 Linecode=16_PSC Length=5.7508 Units=m
New Line.LINE52_120 Bus1=52_118 Bus2=52_121 phases=3 Linecode=4_SAC_PC Length=0.14293 Units=m
New Line.LINE52_121 Bus1=52_118 Bus2=52_122 phases=3 Linecode=5c_.06 Length=1.9637 Units=m
New Line.LINE52_122 Bus1=52_119 Bus2=52_123 phases=3 Linecode=5c_.06 Length=0.34981 Units=m
New Line.LINE52_123 Bus1=52_121 Bus2=52_124 phases=3 Linecode=4_SAC_PC Length=0.17274 Units=m
New Line.LINE52_124 Bus1=52_122 Bus2=52_125 phases=3 Linecode=5c_.06 Length=5.5544 Units=m
New Line.LINE52_125 Bus1=52_123 Bus2=52_126 phases=3 Linecode=5c_.06 Length=0.381 Units=m
New Line.LINE52_126 Bus1=52_124 Bus2=52_127 phases=3 Linecode=4_SAC_PC Length=0.17156 Units=m
New Line.LINE52_127 Bus1=52_125 Bus2=52_128 phases=3 Linecode=5c_.06 Length=0.3964 Units=m
New Line.LINE52_128 Bus1=52_126 Bus2=52_129 phases=3 Linecode=5c_.06 Length=0.4202 Units=m
New Line.LINE52_129 Bus1=52_127 Bus2=52_130 phases=3 Linecode=4_SAC_PC Length=0.17218 Units=m
New Line.LINE52_130 Bus1=52_128 Bus2=52_131 phases=3 Linecode=2c_.0225 Length=0.36255 Units=m
New Line.LINE52_131 Bus1=52_128 Bus2=52_132 phases=3 Linecode=5c_.06 Length=2.9002 Units=m
New Line.LINE52_132 Bus1=52_129 Bus2=52_133 phases=3 Linecode=5c_.06 Length=0.75153 Units=m
New Line.LINE52_133 Bus1=52_130 Bus2=52_134 phases=3 Linecode=4_SAC_PC Length=0.60284 Units=m
New Line.LINE52_134 Bus1=52_131 Bus2=52_135 phases=3 Linecode=2c_.0225 Length=8.7929 Units=m
New Line.LINE52_135 Bus1=52_132 Bus2=52_136 phases=3 Linecode=5c_.06 Length=4.394 Units=m
New Line.LINE52_136 Bus1=52_134 Bus2=52_137 phases=3 Linecode=4_SAC_PC Length=0.60205 Units=m
New Line.LINE52_137 Bus1=52_135 Bus2=52_138 phases=3 Linecode=2c_.0225 Length=6.1938 Units=m
New Line.LINE52_138 Bus1=52_136 Bus2=52_139 phases=3 Linecode=2c_.0225 Length=10.1467 Units=m
New Line.LINE52_139 Bus1=52_136 Bus2=52_140 phases=3 Linecode=5c_.06 Length=4.2893 Units=m
New Line.LINE52_140 Bus1=52_137 Bus2=52_141 phases=3 Linecode=4_SAC_PC Length=0.60161 Units=m
New Line.LINE52_141 Bus1=52_139 Bus2=52_142 phases=3 Linecode=2c_.0225 Length=6.2627 Units=m
New Line.LINE52_142 Bus1=52_140 Bus2=52_143 phases=3 Linecode=2c_.0225 Length=9.8311 Units=m
New Line.LINE52_143 Bus1=52_140 Bus2=52_144 phases=3 Linecode=5c_.06 Length=8.2518 Units=m
New Line.LINE52_144 Bus1=52_143 Bus2=52_145 phases=3 Linecode=2c_.0225 Length=6.8787 Units=m
New Line.LINE52_145 Bus1=52_144 Bus2=52_146 phases=3 Linecode=5c_.06 Length=0.15989 Units=m
New Line.LINE52_146 Bus1=52_146 Bus2=52_147 phases=3 Linecode=2c_.0225 Length=6.4868 Units=m
New Line.LINE52_147 Bus1=52_146 Bus2=52_148 phases=3 Linecode=5c_.06 Length=4.3741 Units=m
New Line.LINE52_148 Bus1=52_147 Bus2=52_149 phases=3 Linecode=2c_.0225 Length=3.9317 Units=m
New Line.LINE52_149 Bus1=52_148 Bus2=52_150 phases=3 Linecode=5c_.06 Length=0.059223 Units=m
New Line.LINE52_150 Bus1=52_150 Bus2=52_151 phases=3 Linecode=2c_.0225 Length=6.3453 Units=m
New Line.LINE52_151 Bus1=52_150 Bus2=52_152 phases=3 Linecode=5c_.06 Length=3.8748 Units=m
New Line.LINE52_152 Bus1=52_151 Bus2=52_153 phases=3 Linecode=2c_.0225 Length=4.9142 Units=m
New Line.LINE52_153 Bus1=52_152 Bus2=52_154 phases=3 Linecode=5c_.06 Length=0.11901 Units=m
New Line.LINE52_154 Bus1=52_154 Bus2=52_155 phases=3 Linecode=2c_.0225 Length=6.1516 Units=m
New Line.LINE52_155 Bus1=52_154 Bus2=52_156 phases=3 Linecode=5c_.06 Length=5.515 Units=m
New Line.LINE52_156 Bus1=52_155 Bus2=52_157 phases=3 Linecode=2c_.0225 Length=6.3094 Units=m
New Line.LINE52_157 Bus1=52_156 Bus2=52_158 phases=3 Linecode=5c_.06 Length=3.4639 Units=m
New Line.LINE52_158 Bus1=52_158 Bus2=52_159 phases=3 Linecode=5c_.06 Length=0.037272 Units=m
New Line.LINE52_159 Bus1=52_159 Bus2=52_160 phases=3 Linecode=2c_.0225 Length=10.9247 Units=m
New Line.LINE52_160 Bus1=52_159 Bus2=52_161 phases=3 Linecode=5c_.06 Length=3.2153 Units=m
New Line.LINE52_161 Bus1=52_161 Bus2=52_162 phases=3 Linecode=5c_.06 Length=0.081514 Units=m
New Line.LINE52_162 Bus1=52_162 Bus2=52_163 phases=3 Linecode=2c_.0225 Length=0.43602 Units=m
New Line.LINE52_163 Bus1=52_162 Bus2=52_164 phases=3 Linecode=5c_.06 Length=5.6786 Units=m
New Line.LINE52_164 Bus1=52_163 Bus2=52_165 phases=3 Linecode=2c_.0225 Length=0.159 Units=m
New Line.LINE52_165 Bus1=52_164 Bus2=52_166 phases=3 Linecode=2c_.0225 Length=10.1561 Units=m
New Line.LINE52_166 Bus1=52_164 Bus2=52_167 phases=3 Linecode=5c_.06 Length=2.2734 Units=m
New Line.LINE52_167 Bus1=52_165 Bus2=52_168 phases=3 Linecode=2c_.0225 Length=0.10519 Units=m
New Line.LINE52_168 Bus1=52_167 Bus2=52_169 phases=3 Linecode=5c_.06 Length=0.033804 Units=m
New Line.LINE52_169 Bus1=52_168 Bus2=52_170 phases=3 Linecode=2c_.0225 Length=0.097837 Units=m
New Line.LINE52_170 Bus1=52_169 Bus2=52_171 phases=3 Linecode=2c_.0225 Length=0.61487 Units=m
New Line.LINE52_171 Bus1=52_169 Bus2=52_172 phases=3 Linecode=5c_.06 Length=18.6254 Units=m
New Line.LINE52_172 Bus1=52_170 Bus2=52_173 phases=3 Linecode=2c_.0225 Length=0.20236 Units=m
New Line.LINE52_173 Bus1=52_172 Bus2=52_174 phases=3 Linecode=5c_.06 Length=4.0218 Units=m
New Line.LINE52_174 Bus1=52_172 Bus2=52_175 phases=3 Linecode=5c_.06 Length=0.015408 Units=m
New Line.LINE52_175 Bus1=52_174 Bus2=52_176 phases=3 Linecode=5c_.06 Length=5.2734 Units=m
New Line.LINE52_176 Bus1=52_176 Bus2=52_177 phases=3 Linecode=25_SAC_XC Length=8.9968 Units=m
New Line.LINE52_177 Bus1=52_176 Bus2=52_178 phases=3 Linecode=5c_.06 Length=5.2747 Units=m
New Line.LINE52_178 Bus1=52_177 Bus2=52_179 phases=3 Linecode=25_SAC_XC Length=4.0095 Units=m
New Line.LINE52_179 Bus1=52_178 Bus2=52_180 phases=3 Linecode=5c_.06 Length=4.5226 Units=m
New Line.LINE52_180 Bus1=52_180 Bus2=52_181 phases=3 Linecode=5c_.06 Length=3.7034 Units=m
New Line.LINE52_181 Bus1=52_181 Bus2=52_182 phases=3 Linecode=25_SAC_XC Length=7.5107 Units=m
New Line.LINE52_182 Bus1=52_181 Bus2=52_183 phases=3 Linecode=5c_.06 Length=7.6234 Units=m
New Line.LINE52_183 Bus1=52_182 Bus2=52_184 phases=3 Linecode=25_SAC_XC Length=5.6018 Units=m
New Line.LINE52_184 Bus1=52_183 Bus2=52_185 phases=3 Linecode=5c_.06 Length=1.8345 Units=m
New Line.LINE52_185 Bus1=52_185 Bus2=52_186 phases=3 Linecode=25_SAC_XC Length=9.2592 Units=m
New Line.LINE52_186 Bus1=52_185 Bus2=52_187 phases=3 Linecode=5c_.06 Length=1.8341 Units=m
New Line.LINE52_187 Bus1=52_186 Bus2=52_188 phases=3 Linecode=25_SAC_XC Length=3.8878 Units=m
New Line.LINE52_188 Bus1=52_187 Bus2=52_189 phases=3 Linecode=5c_.06 Length=4.2431 Units=m
New Line.LINE52_189 Bus1=52_189 Bus2=52_190 phases=3 Linecode=5c_.06 Length=2.6103 Units=m
New Line.LINE52_190 Bus1=52_190 Bus2=52_191 phases=3 Linecode=25_SAC_XC Length=7.4975 Units=m
New Line.LINE52_191 Bus1=52_190 Bus2=52_192 phases=3 Linecode=5c_.06 Length=2.6116 Units=m
New Line.LINE52_192 Bus1=52_191 Bus2=52_193 phases=3 Linecode=25_SAC_XC Length=4.6531 Units=m
