Test_Network/condensed/network_5/Feeder_2/LoadsCopyUnq.txt
New Load.LOAD52_1 Phases=1 Bus1=52_45.1 kV=0.23 kW=1 PF=0.95
New Load.LOAD52_2 Phases=1 Bus1=52_56.3 kV=0.23 kW=1 PF=0.95
New Load.LOAD52_3 Phases=1 Bus1=52_57.3 kV=0.23 kW=1 PF=0.95
New Load.LOAD52_4 Phases=1 Bus1=52_73.1 kV=0.23 kW=1 PF=0.95
New Load.LOAD52_5 Phases=1 Bus1=52_74.1 kV=0.23 kW=1 PF=0.95
New Load.LOAD52_6 Phases=1 Bus1=52_102.2 kV=0.23 kW=1 PF=0.95
New Load.LOAD52_7 Phases=1 Bus1=52_107.3 kV=0.23 kW=1 PF=0.95
New Load.LOAD52_8 Phases=1 Bus1=52_120.3 kV=0.23 kW=1 PF=0.95
New Load.LOAD52_9 Phases=1 Bus1=52_138.3 kV=0.23 kW=1 PF=0.95
New Load.LOAD52_10 Phases=1 Bus1=52_142.3 kV=0.23 kW=1 PF=0.95
New Load.LOAD52_11 Phases=1 Bus1=52_145.2 kV=0.23 kW=1 PF=0.95
New Load.LOAD52_12 Phases=1 Bus1=52_149.3 kV=0.23 kW=1 PF=0.95
New Load.LOAD52_13 Phases=1 Bus1=52_153.2 kV=0.23 kW=1 PF=0.95
New Load.LOAD52_14 Phases=1 Bus1=52_157.2 kV=0.23 kW=1 PF=0.95
New Load.LOAD52_15 Phases=1 Bus1=52_179.3 kV=0.23 kW=1 PF=0.95
New Load.LOAD52_16 Phases=1 Bus1=52_184.1 kV=0.23 kW=1 PF=0.95
New Load.LOAD52_17 Phases=1 Bus1=52_188.2 kV=0.23 kW=1 PF=0.95
New Load.LOAD52_18 Phases=1 Bus1=52_193.3 kV=0.23 kW=1 PF=0.95
