Test_Network/condensed/network_5/Feeder_3/LinesUnq.txt
New Line.LINE53_1 Bus1=53_1 Bus2=53_2 phases=3 Linecode=4c_.2_SAC Length=0.75249 Units=m
New Line.LINE53_2 Bus1=53_2 Bus2=53_3 phases=3 Linecode=4c_.2_SAC Length=0.058188 Units=m
New Line.LINE53_3 Bus1=53_3 Bus2=53_4 phases=3 Linecode=4c_.2_SAC Length=0.048417 Units=m
New Line.LINE53_4 Bus1=53_4 Bus2=53_5 phases=3 Linecode=4c_.2_SAC Length=0.048795 Units=m
New Line.LINE53_5 Bus1=53_5 Bus2=53_6 phases=3 Linecode=4c_.2_SAC Length=0.044654 Units=m
New Line.LINE53_6 Bus1=53_6 Bus2=53_7 phases=3 Linecode=4c_.2_SAC Length=0.053852 Units=m
New Line.LINE53_7 Bus1=53_7 Bus2=53_8 phases=3 Linecode=4c_.2_SAC Length=0.04589 Units=m
New Line.LINE53_8 Bus1=53_8 Bus2=53_9 phases=3 Linecode=4c_.2_SAC Length=0.037015 Units=m
New Line.LINE53_9 Bus1=53_9 Bus2=53_10 phases=3 Linecode=4c_.2_SAC Length=0.060531 Units=m
New Line.LINE53_10 Bus1=53_10 Bus2=53_11 phases=3 Linecode=4c_.2_SAC Length=2.3662 Units=m
New Line.LINE53_11 Bus1=53_11 Bus2=53_12 phases=3 Linecode=4c_.2_SAC Length=0.06316 Units=m
New Line.LINE53_12 Bus1=53_12 Bus2=53_13 phases=3 Linecode=4c_.2_SAC Length=0.059539 Units=m
New Line.LINE53_13 Bus1=53_13 Bus2=53_14 phases=3 Linecode=4c_.2_SAC Length=0.065 Units=m
New Line.LINE53_14 Bus1=53_14 Bus2=53_15 phases=3 Linecode=4c_.2_SAC Length=0.069355 Units=m
New Line.LINE53_15 Bus1=53_15 Bus2=53_16 phases=3 Linecode=4c_.2_SAC Length=0.37752 Units=m
New Line.LINE53_16 Bus1=53_16 Bus2=53_17 phases=3 Linecode=4c_.2_SAC Length=0.053151 Units=m
New Line.LINE53_17 Bus1=53_17 Bus2=53_18 phases=3 Linecode=4c_.2_SAC Length=0.057706 Units=m
New Line.LINE53_18 Bus1=53_18 Bus2=53_19 phases=3 Linecode=4c_.2_SAC Length=0.03614 Units=m
New Line.LINE53_19 Bus1=53_19 Bus2=53_20 phases=3 Linecode=4c_.2_SAC Length=0.046389 Units=m
New Line.LINE53_20 Bus1=53_20 Bus2=53_21 phases=3 Linecode=4c_.2_SAC Length=0.046098 Units=m
New Line.LINE53_21 Bus1=53_21 Bus2=53_22 phases=3 Linecode=4c_.2_SAC Length=5.1968 Units=m
New Line.LINE53_22 Bus1=53_22 Bus2=53_23 phases=3 Linecode=5c_.04 Length=0.1808 Units=m
New Line.LINE53_23 Bus1=53_23 Bus2=53_24 phases=3 Linecode=5c_.04 Length=0.1695 Units=m
New Line.LINE53_24 Bus1=53_24 Bus2=53_25 phases=3 Linecode=5c_.04 Length=1.6284 Units=m
New Line.LINE53_25 Bus1=53_25 Bus2=53_26 phases=3 Linecode=5c_.04 Length=0.76569 Units=m
New Line.LINE53_26 Bus1=53_26 Bus2=53_27 phases=3 Linecode=5c_.04 Length=1.4137 Units=m
New Line.LINE53_27 Bus1=53_27 Bus2=53_28 phases=3 Linecode=5c_.04 Length=9.5944 Units=m
New Line.LINE53_28 Bus1=53_28 Bus2=53_29 phases=3 Linecode=5c_.04 Length=0.65888 Units=m
New Line.LINE53_29 Bus1=53_29 Bus2=53_30 phases=3 Linecode=5c_.04 Length=0.11183 Units=m
New Line.LINE53_30 Bus1=53_30 Bus2=53_31 phases=3 Linecode=5c_.04 Length=0.084204 Units=m
New Line.LINE53_31 Bus1=53_31 Bus2=53_32 phases=3 Linecode=5c_.04 Length=0.1217 Units=m
New Line.LINE53_32 Bus1=53_32 Bus2=53_33 phases=3 Linecode=5c_.04 Length=0.21051 Units=m
New Line.LINE53_33 Bus1=53_33 Bus2=53_34 phases=3 Linecode=5c_.04 Length=0.13147 Units=m
New Line.LINE53_34 Bus1=53_34 Bus2=53_35 phases=3 Linecode=5c_.04 Length=0.17877 Units=m
New Line.LINE53_35 Bus1=53_35 Bus2=53_36 phases=3 Linecode=5c_.04 Length=0.15174 Units=m
New Line.LINE53_36 Bus1=53_36 Bus2=53_37 phases=3 Linecode=5c_.04 Length=0.197 Units=m
New Line.LINE53_37 Bus1=53_37 Bus2=53_38 phases=3 Linecode=5c_.04 Length=0.24748 Units=m
New Line.LINE53_38 Bus1=53_38 Bus2=53_39 phases=3 Linecode=5c_.04 Length=0.6069 Units=m
New Line.LINE53_39 Bus1=53_39 Bus2=53_40 phases=3 Linecode=5c_.04 Length=1.5167 Units=m
New Line.LINE53_40 Bus1=53_40 Bus2=53_41 phases=3 Linecode=5c_.04 Length=2.8184 Units=m
New Line.LINE53_41 Bus1=53_41 Bus2=53_42 phases=3 Linecode=5c_.04 Length=7.9324 Units=m
New Line.LINE53_42 Bus1=53_42 Bus2=53_43 phases=3 Linecode=5c_.04 Length=2.3456 Units=m
New Line.LINE53_43 Bus1=53_43 Bus2=53_44 phases=3 Linecode=5c_.04 Length=4.2054 Units=m
New Line.LINE53_44 Bus1=53_44 Bus2=53_45 phases=3 Linecode=5c_.04 Length=0.27795 Units=m
New Line.LINE53_45 Bus1=53_45 Bus2=53_46 phases=3 Linecode=5c_.04 Length=0.19488 Units=m
New Line.LINE53_46 Bus1=53_46 Bus2=53_47 phases=3 Linecode=5c_.04 Length=0.16996 Units=m
New Line.LINE53_47 Bus1=53_47 Bus2=53_48 phases=3 Linecode=5c_.04 Length=0.185 Units=m
New Line.LINE53_48 Bus1=53_48 Bus2=53_49 phases=3 Linecode=5c_.04 Length=0.17111 Units=m
New Line.LINE53_49 Bus1=53_49 Bus2=53_50 phases=3 Linecode=5c_.04 Length=0.12219 Units=m
New Line.LINE53_50 Bus1=53_50 Bus2=53_51 phases=3 Linecode=5c_.04 Length=0.099724 Units=m
New Line.LINE53_51 Bus1=53_51 Bus2=53_52 phases=3 Linecode=5c_.04 Length=0.14094 Units=m
New Line.LINE53_52 Bus1=53_52 Bus2=53_53 phases=3 Linecode=5c_.04 Length=0.28851 Units=m
New Line.LINE53_53 Bus1=53_53 Bus2=53_54 phases=3 Linecode=5c_.04 Length=0.68602 Units=m
New Line.LINE53_54 Bus1=53_54 Bus2=53_55 phases=3 Linecode=5c_.04 Length=0.64285 Units=m
New Line.LINE53_55 Bus1=53_55 Bus2=53_56 phases=3 Linecode=5c_.04 Length=0.37389 Units=m
New Line.LINE53_56 Bus1=53_56 Bus2=53_57 phases=3 Linecode=5c_.04 Length=1.138 Units=m
New Line.LINE53_57 Bus1=53_57 Bus2=53_58 phases=3 Linecode=5c_.04 Length=1.6386 Units=m
New Line.LINE53_58 Bus1=53_58 Bus2=53_59 phases=3 Linecode=5c_.04 Length=0.67996 Units=m
New Line.LINE53_59 Bus1=53_59 Bus2=53_60 phases=3 Linecode=5c_.04 Length=1.4631 Units=m
New Line.LINE53_60 Bus1=53_60 Bus2=53_61 phases=3 Linecode=5c_.04 Length=9.8586 Units=m
New Line.LINE53_61 Bus1=53_61 Bus2=53_62 phases=3 Linecode=5c_.04 Length=6.2508 Units=m
New Line.LINE53_62 Bus1=53_62 Bus2=53_63 phases=3 Linecode=5c_.04 Length=0.29099 Units=m
New Line.LINE53_63 Bus1=53_62 Bus2=53_64 phases=3 Linecode=5c_.04 Length=0.22857 Units=m
New Line.LINE53_64 Bus1=53_63 Bus2=53_65 phases=3 Linecode=5c_.04 Length=0.15233 Units=m
New Line.LINE53_65 Bus1=53_64 Bus2=53_66 phases=3 Linecode=2c_.0145 Length=16.4023 Units=m
New Line.LINE53_66 Bus1=53_64 Bus2=53_67 phases=3 Linecode=5c_.04 Length=9.2431 Units=m
New Line.LINE53_67 Bus1=53_65 Bus2=53_68 phases=3 Linecode=5c_.04 Length=0.137 Units=m
New Line.LINE53_68 Bus1=53_66 Bus2=53_69 phases=3 Linecode=2c_.0145 Length=4.5267 Units=m
New Line.LINE53_69 Bus1=53_66 Bus2=53_70 phases=3 Linecode=2c_.0145 Length=0.57627 Units=m
New Line.LINE53_70 Bus1=53_67 Bus2=53_71 phases=3 Linecode=2c_.0145 Length=15.7165 Units=m
New Line.LINE53_71 Bus1=53_67 Bus2=53_72 phases=3 Linecode=5c_.04 Length=5.5802 Units=m
New Line.LINE53_72 Bus1=53_68 Bus2=53_73 phases=3 Linecode=5c_.04 Length=0.13038 Units=m
New Line.LINE53_73 Bus1=53_70 Bus2=53_74 phases=3 Linecode=2c_.0145 Length=0.42523 Units=m
New Line.LINE53_74 Bus1=53_71 Bus2=53_75 phases=3 Linecode=2c_.0145 Length=3.8716 Units=m
New Line.LINE53_75 Bus1=53_71 Bus2=53_76 phases=3 Linecode=2c_.0145 Length=0.30683 Units=m
New Line.LINE53_76 Bus1=53_72 Bus2=53_77 phases=3 Linecode=4c_.3_SAC Length=7.2389 Units=m
New Line.LINE53_77 Bus1=53_73 Bus2=53_78 phases=3 Linecode=5c_.04 Length=0.078588 Units=m
New Line.LINE53_78 Bus1=53_74 Bus2=53_79 phases=3 Linecode=2c_.0145 Length=0.50122 Units=m
New Line.LINE53_79 Bus1=53_76 Bus2=53_80 phases=3 Linecode=2c_.0145 Length=0.24656 Units=m
New Line.LINE53_80 Bus1=53_77 Bus2=53_81 phases=3 Linecode=4c_.3_SAC Length=7.1359 Units=m
New Line.LINE53_81 Bus1=53_78 Bus2=53_82 phases=3 Linecode=5c_.04 Length=0.22987 Units=m
New Line.LINE53_82 Bus1=53_79 Bus2=53_83 phases=3 Linecode=2c_.0145 Length=8.7014 Units=m
New Line.LINE53_83 Bus1=53_80 Bus2=53_84 phases=3 Linecode=2c_.0145 Length=0.408 Units=m
New Line.LINE53_84 Bus1=53_81 Bus2=53_85 phases=3 Linecode=4c_.3_SAC Length=0.2631 Units=m
New Line.LINE53_85 Bus1=53_82 Bus2=53_86 phases=3 Linecode=5c_.04 Length=0.12835 Units=m
New Line.LINE53_86 Bus1=53_83 Bus2=53_87 phases=3 Linecode=2c_.0145 Length=1.7092 Units=m
New Line.LINE53_87 Bus1=53_84 Bus2=53_88 phases=3 Linecode=2c_.0145 Length=3.6454 Units=m
New Line.LINE53_88 Bus1=53_85 Bus2=53_89 phases=3 Linecode=4c_.3_SAC Length=0.1252 Units=m
New Line.LINE53_89 Bus1=53_86 Bus2=53_90 phases=3 Linecode=5c_.04 Length=0.066219 Units=m
New Line.LINE53_90 Bus1=53_88 Bus2=53_91 phases=3 Linecode=2c_.0145 Length=3.4784 Units=m
New Line.LINE53_91 Bus1=53_89 Bus2=53_92 phases=3 Linecode=4c_.3_SAC Length=0.15654 Units=m
New Line.LINE53_92 Bus1=53_92 Bus2=53_93 phases=3 Linecode=4c_.3_SAC Length=0.16177 Units=m
New Line.LINE53_93 Bus1=53_93 Bus2=53_94 phases=3 Linecode=4c_.3_SAC Length=1.6833 Units=m
New Line.LINE53_94 Bus1=53_94 Bus2=53_95 phases=3 Linecode=4c_.3_SAC Length=1.6153 Units=m
New Line.LINE53_95 Bus1=53_94 Bus2=53_96 phases=3 Linecode=4c_.3_SAC Length=1.6153 Units=m
New Line.LINE53_96 Bus1=53_94 Bus2=53_97 phases=3 Linecode=4c_.2_SAC Length=2.0111 Units=m
New Line.LINE53_97 Bus1=53_95 Bus2=53_98 phases=3 Linecode=4c_.3_SAC Length=0.42047 Units=m
New Line.LINE53_98 Bus1=53_95 Bus2=53_99 phases=3 Linecode=4c_.3_SAC Length=0.42047 Units=m
New Line.LINE53_99 Bus1=53_97 Bus2=53_100 phases=3 Linecode=4c_.2_SAC Length=0.81544 Units=m
New Line.LINE53_100 Bus1=53_98 Bus2=53_101 phases=3 Linecode=4c_.3_SAC Length=0.2381 Units=m
New Line.LINE53_101 Bus1=53_98 Bus2=53_102 phases=3 Linecode=4c_.3_SAC Length=0.2381 Units=m
New Line.LINE53_102 Bus1=53_100 Bus2=53_103 phases=3 Linecode=4c_185_SAC_XC Length=2.2696 Units=m
New Line.LINE53_103 Bus1=53_100 Bus2=53_104 phases=3 Linecode=4c_.2_SAC Length=3.8055 Units=m
New Line.LINE53_104 Bus1=53_101 Bus2=53_105 phases=3 Linecode=4c_.3_SAC Length=5.6936 Units=m
New Line.LINE53_105 Bus1=53_101 Bus2=53_106 phases=3 Linecode=4c_.3_SAC Length=5.6936 Units=m
New Line.LINE53_106 Bus1=53_103 Bus2=53_107 phases=3 Linecode=4c_185_SAC_XC Length=0.81847 Units=m
New Line.LINE53_107 Bus1=53_104 Bus2=53_108 phases=3 Linecode=4c_.2_SAC Length=1.861 Units=m
New Line.LINE53_108 Bus1=53_105 Bus2=53_109 phases=3 Linecode=4c_.3_SAC Length=10.7386 Units=m
New Line.LINE53_109 Bus1=53_105 Bus2=53_110 phases=3 Linecode=4c_.3_SAC Length=0.3459 Units=m
New Line.LINE53_110 Bus1=53_107 Bus2=53_111 phases=3 Linecode=4c_185_SAC_XC Length=0.22871 Units=m
New Line.LINE53_111 Bus1=53_108 Bus2=53_112 phases=3 Linecode=2c_.0145 Length=6.5048 Units=m
New Line.LINE53_112 Bus1=53_108 Bus2=53_113 phases=3 Linecode=4c_.2_SAC Length=3.2288 Units=m
New Line.LINE53_113 Bus1=53_109 Bus2=53_114 phases=3 Linecode=4c_.3_SAC Length=7.5026 Units=m
New Line.LINE53_114 Bus1=53_109 Bus2=53_115 phases=3 Linecode=4c_.3_SAC Length=7.5026 Units=m
New Line.LINE53_115 Bus1=53_109 Bus2=53_116 phases=3 Linecode=4c_.3_SAC Length=10.3927 Units=m
New Line.LINE53_116 Bus1=53_110 Bus2=53_117 phases=3 Linecode=4c_.3_SAC Length=0.69257 Units=m
New Line.LINE53_117 Bus1=53_111 Bus2=53_118 phases=3 Linecode=4c_185_SAC_XC Length=0.25533 Units=m
New Line.LINE53_118 Bus1=53_112 Bus2=53_119 phases=3 Linecode=2c_.0145 Length=4.7841 Units=m
New Line.LINE53_119 Bus1=53_112 Bus2=53_120 phases=3 Linecode=2c_.0145 Length=0.23844 Units=m
New Line.LINE53_120 Bus1=53_113 Bus2=53_121 phases=3 Linecode=4c_.2_SAC Length=1.5111 Units=m
New Line.LINE53_121 Bus1=53_114 Bus2=53_122 phases=3 Linecode=4c_.3_SAC Length=7.6442 Units=m
New Line.LINE53_122 Bus1=53_114 Bus2=53_123 phases=3 Linecode=4c_.3_SAC Length=7.6442 Units=m
New Line.LINE53_123 Bus1=53_117 Bus2=53_124 phases=3 Linecode=4c_.3_SAC Length=0.87246 Units=m
New Line.LINE53_124 Bus1=53_118 Bus2=53_125 phases=3 Linecode=4c_185_SAC_XC Length=0.30017 Units=m
New Line.LINE53_125 Bus1=53_120 Bus2=53_126 phases=3 Linecode=2c_.0145 Length=0.081999 Units=m
New Line.LINE53_126 Bus1=53_121 Bus2=53_127 phases=3 Linecode=25_SAC_XC Length=11.7029 Units=m
New Line.LINE53_127 Bus1=53_121 Bus2=53_128 phases=3 Linecode=4c_.2_SAC Length=11.7029 Units=m
New Line.LINE53_128 Bus1=53_121 Bus2=53_129 phases=3 Linecode=4c_.2_SAC Length=0.83763 Units=m
New Line.LINE53_129 Bus1=53_122 Bus2=53_130 phases=3 Linecode=4c_.3_SAC Length=6.8459 Units=m
New Line.LINE53_130 Bus1=53_122 Bus2=53_131 phases=3 Linecode=4c_.3_SAC Length=6.8459 Units=m
New Line.LINE53_131 Bus1=53_124 Bus2=53_132 phases=3 Linecode=4c_.3_SAC Length=0.24463 Units=m
New Line.LINE53_132 Bus1=53_125 Bus2=53_133 phases=3 Linecode=4c_185_SAC_XC Length=0.76026 Units=m
New Line.LINE53_133 Bus1=53_126 Bus2=53_134 phases=3 Linecode=2c_.0145 Length=0.11 Units=m
New Line.LINE53_134 Bus1=53_127 Bus2=53_135 phases=3 Linecode=25_SAC_XC Length=1.0462 Units=m
New Line.LINE53_135 Bus1=53_127 Bus2=53_136 phases=3 Linecode=25_SAC_XC Length=1.0462 Units=m
New Line.LINE53_136 Bus1=53_129 Bus2=53_137 phases=3 Linecode=4c_.2_SAC Length=1.6111 Units=m
New Line.LINE53_137 Bus1=53_130 Bus2=53_138 phases=3 Linecode=4c_.3_SAC Length=6.6503 Units=m
New Line.LINE53_138 Bus1=53_130 Bus2=53_139 phases=3 Linecode=4c_.3_SAC Length=6.6503 Units=m
New Line.LINE53_139 Bus1=53_132 Bus2=53_140 phases=3 Linecode=4c_.3_SAC Length=0.2444 Units=m
New Line.LINE53_140 Bus1=53_133 Bus2=53_141 phases=3 Linecode=4c_185_SAC_XC Length=0.65196 Units=m
New Line.LINE53_141 Bus1=53_134 Bus2=53_142 phases=3 Linecode=2c_.0145 Length=0.15886 Units=m
New Line.LINE53_142 Bus1=53_135 Bus2=53_143 phases=3 Linecode=25_SAC_XC Length=10.2018 Units=m
New Line.LINE53_143 Bus1=53_135 Bus2=53_144 phases=3 Linecode=25_SAC_XC Length=10.2018 Units=m
New Line.LINE53_144 Bus1=53_137 Bus2=53_145 phases=3 Linecode=4c_.2_SAC Length=1.2696 Units=m
New Line.LINE53_145 Bus1=53_138 Bus2=53_146 phases=3 Linecode=4c_.3_SAC Length=0.98726 Units=m
New Line.LINE53_146 Bus1=53_138 Bus2=53_147 phases=3 Linecode=4c_.3_SAC Length=0.98726 Units=m
New Line.LINE53_147 Bus1=53_140 Bus2=53_148 phases=3 Linecode=4c_.3_SAC Length=0.24481 Units=m
New Line.LINE53_148 Bus1=53_141 Bus2=53_149 phases=3 Linecode=4c_185_SAC_XC Length=0.36582 Units=m
New Line.LINE53_149 Bus1=53_142 Bus2=53_150 phases=3 Linecode=2c_.0145 Length=1.0261 Units=m
New Line.LINE53_150 Bus1=53_143 Bus2=53_151 phases=3 Linecode=25_SAC_XC Length=5.7761 Units=m
New Line.LINE53_151 Bus1=53_145 Bus2=53_152 phases=3 Linecode=4c_.2_SAC Length=0.9805 Units=m
New Line.LINE53_152 Bus1=53_146 Bus2=53_153 phases=3 Linecode=4c_.3_SAC Length=0.111 Units=m
New Line.LINE53_153 Bus1=53_146 Bus2=53_154 phases=3 Linecode=4c_.3_SAC Length=0.111 Units=m
New Line.LINE53_154 Bus1=53_148 Bus2=53_155 phases=3 Linecode=4c_.3_SAC Length=0.24382 Units=m
New Line.LINE53_155 Bus1=53_149 Bus2=53_156 phases=3 Linecode=4c_185_SAC_XC Length=0.35751 Units=m
New Line.LINE53_156 Bus1=53_150 Bus2=53_157 phases=3 Linecode=2c_.0145 Length=0.54142 Units=m
New Line.LINE53_157 Bus1=53_152 Bus2=53_158 phases=3 Linecode=4c_.2_SAC Length=1.0785 Units=m
New Line.LINE53_158 Bus1=53_153 Bus2=53_159 phases=3 Linecode=4c_.3_SAC Length=0.131 Units=m
New Line.LINE53_159 Bus1=53_153 Bus2=53_160 phases=3 Linecode=4c_.3_SAC Length=0.131 Units=m
New Line.LINE53_160 Bus1=53_155 Bus2=53_161 phases=3 Linecode=4c_.3_SAC Length=0.24531 Units=m
New Line.LINE53_161 Bus1=53_156 Bus2=53_162 phases=3 Linecode=4c_185_SAC_XC Length=0.32647 Units=m
New Line.LINE53_162 Bus1=53_157 Bus2=53_163 phases=3 Linecode=2c_.0145 Length=0.062936 Units=m
New Line.LINE53_163 Bus1=53_158 Bus2=53_164 phases=3 Linecode=4c_.2_SAC Length=1.237 Units=m
New Line.LINE53_164 Bus1=53_159 Bus2=53_165 phases=3 Linecode=4c_.3_SAC Length=0.19876 Units=m
New Line.LINE53_165 Bus1=53_159 Bus2=53_166 phases=3 Linecode=4c_.3_SAC Length=0.19876 Units=m
New Line.LINE53_166 Bus1=53_161 Bus2=53_167 phases=3 Linecode=4c_.3_SAC Length=0.24438 Units=m
New Line.LINE53_167 Bus1=53_162 Bus2=53_168 phases=3 Linecode=4c_185_SAC_XC Length=0.29693 Units=m
New Line.LINE53_168 Bus1=53_163 Bus2=53_169 phases=3 Linecode=2c_.0145 Length=0.096399 Units=m
New Line.LINE53_169 Bus1=53_164 Bus2=53_170 phases=3 Linecode=4c_.2_SAC Length=0.45047 Units=m
New Line.LINE53_170 Bus1=53_165 Bus2=53_171 phases=3 Linecode=4c_.3_SAC Length=0.33242 Units=m
New Line.LINE53_171 Bus1=53_165 Bus2=53_172 phases=3 Linecode=4c_.3_SAC Length=0.33242 Units=m
New Line.LINE53_172 Bus1=53_168 Bus2=53_173 phases=3 Linecode=4c_185_SAC_XC Length=5.5057 Units=m
New Line.LINE53_173 Bus1=53_169 Bus2=53_174 phases=3 Linecode=2c_.0145 Length=0.096603 Units=m
New Line.LINE53_174 Bus1=53_170 Bus2=53_175 phases=3 Linecode=4c_.2_SAC Length=0.40585 Units=m
New Line.LINE53_175 Bus1=53_171 Bus2=53_176 phases=3 Linecode=4c_.3_SAC Length=2.4898 Units=m
New Line.LINE53_176 Bus1=53_171 Bus2=53_177 phases=3 Linecode=4c_.3_SAC Length=2.4898 Units=m
New Line.LINE53_177 Bus1=53_173 Bus2=53_178 phases=3 Linecode=4c_185_SAC_XC Length=0.169 Units=m
New Line.LINE53_178 Bus1=53_174 Bus2=53_179 phases=3 Linecode=2c_.0145 Length=0.10262 Units=m
New Line.LINE53_179 Bus1=53_175 Bus2=53_180 phases=3 Linecode=4c_.2_SAC Length=0.26147 Units=m
New Line.LINE53_180 Bus1=53_176 Bus2=53_181 phases=3 Linecode=4c_.3_SAC Length=0.29329 Units=m
New Line.LINE53_181 Bus1=53_176 Bus2=53_182 phases=3 Linecode=4c_.3_SAC Length=0.29329 Units=m
New Line.LINE53_182 Bus1=53_178 Bus2=53_183 phases=3 Linecode=4c_185_SAC_XC Length=0.28889 Units=m
New Line.LINE53_183 Bus1=53_179 Bus2=53_184 phases=3 Linecode=2c_.0145 Length=0.054332 Units=m
New Line.LINE53_184 Bus1=53_180 Bus2=53_185 phases=3 Linecode=4c_.2_SAC Length=0.41469 Units=m
New Line.LINE53_185 Bus1=53_181 Bus2=53_186 phases=3 Linecode=4c_.3_SAC Length=0.097047 Units=m
New Line.LINE53_186 Bus1=53_181 Bus2=53_187 phases=3 Linecode=4c_.3_SAC Length=0.097047 Units=m
New Line.LINE53_187 Bus1=53_183 Bus2=53_188 phases=3 Linecode=4c_185_SAC_XC Length=0.32183 Units=m
New Line.LINE53_188 Bus1=53_184 Bus2=53_189 phases=3 Linecode=2c_.0145 Length=0.073245 Units=m
New Line.LINE53_189 Bus1=53_185 Bus2=53_190 phases=3 Linecode=4c_.2_SAC Length=0.73369 Units=m
New Line.LINE53_190 Bus1=53_186 Bus2=53_191 phases=3 Linecode=4c_.3_SAC Length=26.9053 Units=m
New Line.LINE53_191 Bus1=53_186 Bus2=53_192 phases=3 Linecode=4c_.3_SAC Length=26.9053 Units=m
New Line.LINE53_192 Bus1=53_188 Bus2=53_193 phases=3 Linecode=4c_185_SAC_XC Length=0.15983 Units=m
New Line.LINE53_193 Bus1=53_189 Bus2=53_194 phases=3 Linecode=2c_.0145 Length=4.8023 Units=m
New Line.LINE53_194 Bus1=53_190 Bus2=53_195 phases=3 Linecode=4c_.0145 Length=0.44759 Units=m
New Line.LINE53_195 Bus1=53_190 Bus2=53_196 phases=3 Linecode=4c_.2_SAC Length=10.9381 Units=m
New Line.LINE53_196 Bus1=53_190 Bus2=53_197 phases=3 Linecode=4c_.2_SAC Length=9.3902 Units=m
New Line.LINE53_197 Bus1=53_191 Bus2=53_198 phases=3 Linecode=4c_.3_SAC Length=0.096256 Units=m
New Line.LINE53_198 Bus1=53_191 Bus2=53_199 phases=3 Linecode=4c_.3_SAC Length=0.096256 Units=m
New Line.LINE53_199 Bus1=53_193 Bus2=53_200 phases=3 Linecode=4c_185_SAC_XC Length=0.19424 Units=m
New Line.LINE53_200 Bus1=53_195 Bus2=53_201 phases=3 Linecode=4c_.0145 Length=0.074277 Units=m
...
