Test_Network/condensed/network_5/Feeder_3/LoadsCopyUnq.txt
New Load.LOAD53_1 Phases=1 Bus1=53_69.2 kV=0.23 kW=1 PF=0.95
New Load.LOAD53_2 Phases=1 Bus1=53_75.1 kV=0.23 kW=1 PF=0.95
New Load.LOAD53_3 Phases=1 Bus1=53_87.2 kV=0.23 kW=1 PF=0.95
New Load.LOAD53_4 Phases=1 Bus1=53_91.1 kV=0.23 kW=1 PF=0.95
New Load.LOAD53_5 Phases=1 Bus1=53_119.1 kV=0.23 kW=1 PF=0.95
New Load.LOAD53_6 Phases=1 Bus1=53_151.1 kV=0.23 kW=1 PF=0.95
New Load.LOAD53_7 Phases=1 Bus1=53_194.1 kV=0.23 kW=1 PF=0.95
New Load.LOAD53_8 Phases=1 Bus1=53_211.3 kV=0.23 kW=1 PF=0.95
New Load.LOAD53_9 Phases=1 Bus1=53_226.2 kV=0.23 kW=1 PF=0.95
New Load.LOAD53_10 Phases=1 Bus1=53_251.3 kV=0.23 kW=1 PF=0.95
New Load.LOAD53_11 Phases=1 Bus1=53_265.3 kV=0.23 kW=1 PF=0.95
New Load.LOAD53_12 Phases=1 Bus1=53_273.2 kV=0.23 kW=1 PF=0.95
New Load.LOAD53_13 Phases=1 Bus1=53_319.2 kV=0.23 kW=1 PF=0.95
New Load.LOAD53_14 Phases=1 Bus1=53_326.1 kV=0.23 kW=1 PF=0.95
New Load.LOAD53_15 Phases=1 Bus1=53_356.2 kV=0.23 kW=1 PF=0.95
New Load.LOAD53_16 Phases=1 Bus1=53_361.1 kV=0.23 kW=1 PF=0.95
New Load.LOAD53_17 Phases=1 Bus1=53_370.2 kV=0.23 kW=1 PF=0.95
New Load.LOAD53_18 Phases=1 Bus1=53_390.3 kV=0.23 kW=1 PF=0.95
New Load.LOAD53_19 Phases=1 Bus1=53_395.3 kV=0.23 kW=1 PF=0.95
New Load.LOAD53_20 Phases=1 Bus1=53_410.3 kV=0.23 kW=1 PF=0.95
New Load.LOAD53_21 Phases=1 Bus1=53_434.2 kV=0.23 kW=1 PF=0.95
New Load.LOAD53_22 Phases=1 Bus1=53_438.3 kV=0.23 kW=1 PF=0.95
New Load.LOAD53_23 Phases=1 Bus1=53_455.1 kV=0.23 kW=1 PF=0.95
New Load.LOAD53_24 Phases=1 Bus1=53_502.3 kV=0.23 kW=1 PF=0.95
New Load.LOAD53_25 Phases=1 Bus1=53_511.2 kV=0.23 kW=1 PF=0.95
New Load.LOAD53_26 Phases=1 Bus1=53_531.2 kV=0.23 kW=1 PF=0.95
New Load.LOAD53_27 Phases=1 Bus1=53_553.1 kV=0.23 kW=1 PF=0.95
New Load.LOAD53_28 Phases=1 Bus1=53_555.3 kV=0.23 kW=1 PF=0.95
New Load.LOAD53_29 Phases=1 Bus1=53_571.3 kV=0.23 kW=1 PF=0.95
New Load.LOAD53_30 Phases=1 Bus1=53_579.3 kV=0.23 kW=1 PF=0.95
New Load.LOAD53_31 Phases=1 Bus1=53_581.1 kV=0.23 kW=1 PF=0.95
New Load.LOAD53_32 Phases=1 Bus1=53_622.3 kV=0.23 kW=1 PF=0.95
New Load.LOAD53_33 Phases=1 Bus1=53_692.1 kV=0.23 kW=1 PF=0.95
New Load.LOAD53_34 Phases=1 Bus1=53_694.2 kV=0.23 kW=1 PF=0.95
New Load.LOAD53_35 Phases=1 Bus1=53_722.2 kV=0.23 kW=1 PF=0.95
New Load.LOAD53_36 Phases=1 Bus1=53_749.3 kV=0.23 kW=1 PF=0.95
New Load.LOAD53_37 Phases=1 Bus1=53_773.2 kV=0.23 kW=1 PF=0.95
New Load.LOAD53_38 Phases=1 Bus1=53_778.1 kV=0.23 kW=1 PF=0.95
New Load.LOAD53_39 Phases=1 Bus1=53_780.3 kV=0.23 kW=1 PF=0.95
New Load.LOAD53_40 Phases=1 Bus1=53_805.3 kV=0.23 kW=1 PF=0.95
New Load.LOAD53_41 Phases=1 Bus1=53_809.2 kV=0.23 kW=1 PF=0.95
New Load.LOAD53_42 Phases=1 Bus1=53_842.2 kV=0.23 kW=1 PF=0.95
New Load.LOAD53_43 Phases=1 Bus1=53_871.3 kV=0.23 kW=1 PF=0.95
New Load.LOAD53_44 Phases=1 Bus1=53_922.1 kV=0.23 kW=1 PF=0.95
New Load.LOAD53_45 Phases=1 Bus1=53_943.3 kV=0.23 kW=1 PF=0.95
New Load.LOAD53_46 Phases=1 Bus1=53_957.1 kV=0.23 kW=1 PF=0.95
New Load.LOAD53_47 Phases=1 Bus1=53_967.1 kV=0.23 kW=1 PF=0.95
New Load.LOAD53_48 Phases=1 Bus1=53_977.3 kV=0.23 kW=1 PF=0.95
New Load.LOAD53_49 Phases=1 Bus1=53_980.2 kV=0.23 kW=1 PF=0.95
New Load.LOAD53_50 Phases=1 Bus1=53_1001.3 kV=0.23 kW=1 PF=0.95
New Load.LOAD53_51 Phases=1 Bus1=53_1011.2 kV=0.23 kW=1 PF=0.95
New Load.LOAD53_52 Phases=1 Bus1=53_1030.1 kV=0.23 kW=1 PF=0.95
New Load.LOAD53_53 Phases=1 Bus1=53_1047.2 kV=0.23 kW=1 PF=0.95
New Load.LOAD53_54 Phases=1 Bus1=53_1064.3 kV=0.23 kW=1 PF=0.95
New Load.LOAD53_55 Phases=1 Bus1=53_1076.2 kV=0.23 kW=1 PF=0.95
New Load.LOAD53_56 Phases=1 Bus1=53_1085.1 kV=0.23 kW=1 PF=0.95
New Load.LOAD53_57 Phases=1 Bus1=53_1089.2 kV=0.23 kW=1 PF=0.95
New Load.LOAD53_58 Phases=1 Bus1=53_1092.1 kV=0.23 kW=1 PF=0.95
New Load.LOAD53_59 Phases=1 Bus1=53_1093.2 kV=0.23 kW=1 PF=0.95
New Load.LOAD53_60 Phases=1 Bus1=53_1115.1 kV=0.23 kW=1 PF=0.95
New Load.LOAD53_61 Phases=1 Bus1=53_1118.3 kV=0.23 kW=1 PF=0.95
New Load.LOAD53_62 Phases=1 Bus1=53_1146.3 kV=0.23 kW=1 PF=0.95
New Load.LOAD53_63 Phases=1 Bus1=53_1155.1 kV=0.23 kW=1 PF=0.95
New Load.LOAD53_64 Phases=1 Bus1=53_1157.1 kV=0.23 kW=1 PF=0.95
New Load.LOAD53_65 Phases=1 Bus1=53_1158.2 kV=0.23 kW=1 PF=0.95
New Load.LOAD53_66 Phases=1 Bus1=53_1167.1 kV=0.23 kW=1 PF=0.95
New Load.LOAD53_67 Phases=1 Bus1=53_1172.2 kV=0.23 kW=1 PF=0.95
New Load.LOAD53_68 Phases=1 Bus1=53_1181.3 kV=0.23 kW=1 PF=0.95
New Load.LOAD53_69 Phases=1 Bus1=53_1183.2 kV=0.23 kW=1 PF=0.95
New Load.LOAD53_70 Phases=1 Bus1=53_1195.2 kV=0.23 kW=1 PF=0.95
New Load.LOAD53_71 Phases=1 Bus1=53_1206.1 kV=0.23 kW=1 PF=0.95
New Load.LOAD53_72 Phases=1 Bus1=53_1215.2 kV=0.23 kW=1 PF=0.95
New Load.LOAD53_73 Phases=1 Bus1=53_1216.1 kV=0.23 kW=1 PF=0.95
New Load.LOAD53_74 Phases=1 Bus1=53_1234.2 kV=0.23 kW=1 PF=0.95
New Load.LOAD53_75 Phases=1 Bus1=53_1248.1 kV=0.23 kW=1 PF=0.95
New Load.LOAD53_76 Phases=1 Bus1=53_1250.1 kV=0.23 kW=1 PF=0.95
New Load.LOAD53_77 Phases=1 Bus1=53_1269.1 kV=0.23 kW=1 PF=0.95
New Load.LOAD53_78 Phases=1 Bus1=53_1282.1 kV=0.23 kW=1 PF=0.95
New Load.LOAD53_79 Phases=1 Bus1=53_1302.3 kV=0.23 kW=1 PF=0.95
New Load.LOAD53_80 Phases=1 Bus1=53_1310.2 kV=0.23 kW=1 PF=0.95
New Load.LOAD53_81 Phases=1 Bus1=53_1346.1 kV=0.23 kW=1 PF=0.95
New Load.LOAD53_82 Phases=1 Bus1=53_1357.2 kV=0.23 kW=1 PF=0.95
New Load.LOAD53_83 Phases=1 Bus1=53_1374.3 kV=0.23 kW=1 PF=0.95
New Load.LOAD53_84 Phases=1 Bus1=53_1389.2 kV=0.23 kW=1 PF=0.95
New Load.LOAD53_85 Phases=1 Bus1=53_1390.1 kV=0.23 kW=1 PF=0.95
New Load.LOAD53_86 Phases=1 Bus1=53_1392.2 kV=0.23 kW=1 PF=0.95
New Load.LOAD53_87 Phases=1 Bus1=53_1409.3 kV=0.23 kW=1 PF=0.95
New Load.LOAD53_88 Phases=1 Bus1=53_1420.1 kV=0.23 kW=1 PF=0.95
New Load.LOAD53_89 Phases=1 Bus1=53_1424.1 kV=0.23 kW=1 PF=0.95
New Load.LOAD53_90 Phases=1 Bus1=53_1441.3 kV=0.23 kW=1 PF=0.95
New Load.LOAD53_91 Phases=1 Bus1=53_1446.3 kV=0.23 kW=1 PF=0.95
New Load.LOAD53_92 Phases=1 Bus1=53_1464.3 kV=0.23 kW=1 PF=0.95
New Load.LOAD53_93 Phases=1 Bus1=53_1488.2 kV=0.23 kW=1 PF=0.95
New Load.LOAD53_94 Phases=1 Bus1=53_1505.3 kV=0.23 kW=1 PF=0.95
New Load.LOAD53_95 Phases=1 Bus1=53_1513.1 kV=0.23 kW=1 PF=0.95
New Load.LOAD53_96 Phases=1 Bus1=53_1518.1 kV=0.23 kW=1 PF=0.95
New Load.LOAD53_97 Phases=1 Bus1=53_1547.1 kV=0.23 kW=1 PF=0.95
New Load.LOAD53_98 Phases=1 Bus1=53_1563.3 kV=0.23 kW=1 PF=0.95
New Load.LOAD53_99 Phases=1 Bus1=53_1567.2 kV=0.23 kW=1 PF=0.95
New Load.LOAD53_100 Phases=1 Bus1=53_1588.1 kV=0.23 kW=1 PF=0.95
New Load.LOAD53_101 Phases=1 Bus1=53_1594.3 kV=0.23 kW=1 PF=0.95
New Load.LOAD53_102 Phases=1 Bus1=53_1598.2 kV=0.23 kW=1 PF=0.95
New Load.LOAD53_103 Phases=1 Bus1=53_1619.1 kV=0.23 kW=1 PF=0.95
New Load.LOAD53_104 Phases=1 Bus1=53_1627.1 kV=0.23 kW=1 PF=0.95
New Load.LOAD53_105 Phases=1 Bus1=53_1631.1 kV=0.23 kW=1 PF=0.95
New Load.LOAD53_106 Phases=1 Bus1=53_1666.3 kV=0.23 kW=1 PF=0.95
New Load.LOAD53_107 Phases=1 Bus1=53_1684.3 kV=0.23 kW=1 PF=0.95
New Load.LOAD53_108 Phases=1 Bus1=53_1711.1 kV=0.23 kW=1 PF=0.95
New Load.LOAD53_109 Phases=1 Bus1=53_1733.3 kV=0.23 kW=1 PF=0.95
New Load.LOAD53_110 Phases=1 Bus1=53_1743.1 kV=0.23 kW=1 PF=0.95
New Load.LOAD53_111 Phases=1 Bus1=53_1744.1 kV=0.23 kW=1 PF=0.95
New Load.LOAD53_112 Phases=1 Bus1=53_1762.1 kV=0.23 kW=1 PF=0.95
New Load.LOAD53_113 Phases=1 Bus1=53_1763.2 kV=0.23 kW=1 PF=0.95
New Load.LOAD53_114 Phases=1 Bus1=53_1764.3 kV=0.23 kW=1 PF=0.95
New Load.LOAD53_115 Phases=1 Bus1=53_1800.3 kV=0.23 kW=1 PF=0.95
New Load.LOAD53_116 Phases=1 Bus1=53_1819.1 kV=0.23 kW=1 PF=0.95
New Load.LOAD53_117 Phases=1 Bus1=53_1885.1 kV=0.23 kW=1 PF=0.95
New Load.LOAD53_118 Phases=1 Bus1=53_1911.3 kV=0.23 kW=1 PF=0.95
New Load.LOAD53_119 Phases=1 Bus1=53_1993.2 kV=0.23 kW=1 PF=0.95
New Load.LOAD53_120 Phases=1 Bus1=53_2010.3 kV=0.23 kW=1 PF=0.95
New Load.LOAD53_121 Phases=1 Bus1=53_2023.2 kV=0.23 kW=1 PF=0.95
New Load.LOAD53_122 Phases=1 Bus1=53_2043.1 kV=0.23 kW=1 PF=0.95
New Load.LOAD53_123 Phases=1 Bus1=53_2059.3 kV=0.23 kW=1 PF=0.95
New Load.LOAD53_124 Phases=1 Bus1=53_2064.3 kV=0.23 kW=1 PF=0.95
New Load.LOAD53_125 Phases=1 Bus1=53_2092.2 kV=0.23 kW=1 PF=0.95
New Load.LOAD53_126 Phases=1 Bus1=53_2176.3 kV=0.23 kW=1 PF=0.95
New Load.LOAD53_127 Phases=1 Bus1=53_2199.1 kV=0.23 kW=1 PF=0.95
New Load.LOAD53_128 Phases=1 Bus1=53_2203.3 kV=0.23 kW=1 PF=0.95
New Load.LOAD53_129 Phases=1 Bus1=53_2227.2 kV=0.23 kW=1 PF=0.95
New Load.LOAD53_130 Phases=1 Bus1=53_2230.3 kV=0.23 kW=1 PF=0.95
New Load.LOAD53_131 Phases=1 Bus1=53_2232.1 kV=0.23 kW=1 PF=0.95
New Load.LOAD53_132 Phases=1 Bus1=53_2237.2 kV=0.23 kW=1 PF=0.95
New Load.LOAD53_133 Phases=1 Bus1=53_2249.2 kV=0.23 kW=1 PF=0.95
New Load.LOAD53_134 Phases=1 Bus1=53_2313.2 kV=0.23 kW=1 PF=0.95
New Load.LOAD53_135 Phases=1 Bus1=53_2349.2 kV=0.23 kW=1 PF=0.95
New Load.LOAD53_136 Phases=1 Bus1=53_2402.2 kV=0.23 kW=1 PF=0.95
New Load.LOAD53_137 Phases=1 Bus1=53_2435.3 kV=0.23 kW=1 PF=0.95
New Load.LOAD53_138 Phases=1 Bus1=53_2466.1 kV=0.23 kW=1 PF=0.95
New Load.LOAD53_139 Phases=1 Bus1=53_2489.2 kV=0.23 kW=1 PF=0.95
New Load.LOAD53_140 Phases=1 Bus1=53_2501.3 kV=0.23 kW=1 PF=0.95
New Load.LOAD53_141 Phases=1 Bus1=53_2521.1 kV=0.23 kW=1 PF=0.95
New Load.LOAD53_142 Phases=1 Bus1=53_2548.2 kV=0.23 kW=1 PF=0.95
New Load.LOAD53_143 Phases=1 Bus1=53_2555.3 kV=0.23 kW=1 PF=0.95
New Load.LOAD53_144 Phases=1 Bus1=53_2587.1 kV=0.23 kW=1 PF=0.95
New Load.LOAD53_145 Phases=1 Bus1=53_2621.2 kV=0.23 kW=1 PF=0.95
New Load.LOAD53_146 Phases=1 Bus1=53_2643.3 kV=0.23 kW=1 PF=0.95
New Load.LOAD53_147 Phases=1 Bus1=53_2647.3 kV=0.23 kW=1 PF=0.95
New Load.LOAD53_148 Phases=1 Bus1=53_2721.1 kV=0.23 kW=1 PF=0.95
New Load.LOAD53_149 Phases=1 Bus1=53_2752.3 kV=0.23 kW=1 PF=0.95
New Load.LOAD53_150 Phases=1 Bus1=53_2816.2 kV=0.23 kW=1 PF=0.95
New Load.LOAD53_151 Phases=1 Bus1=53_2826.1 kV=0.23 kW=1 PF=0.95
New Load.LOAD53_152 Phases=1 Bus1=53_2876.1 kV=0.23 kW=1 PF=0.95
New Load.LOAD53_153 Phases=1 Bus1=53_2884.2 kV=0.23 kW=1 PF=0.95
New Load.LOAD53_154 Phases=1 Bus1=53_2888.3 kV=0.23 kW=1 PF=0.95
New Load.LOAD53_155 Phases=1 Bus1=53_2900.3 kV=0.23 kW=1 PF=0.95
New Load.LOAD53_156 Phases=1 Bus1=53_2902.1 kV=0.23 kW=1 PF=0.95
