Test_Network/condensed/network_5/Feeder_4/LoadsCopyUnq.txt
New Load.LOAD54_1 Phases=1 Bus1=54_68.1 kV=0.23 kW=1 PF=0.95
New Load.LOAD54_2 Phases=1 Bus1=54_76.1 kV=0.23 kW=1 PF=0.95
New Load.LOAD54_3 Phases=1 Bus1=54_142.2 kV=0.23 kW=1 PF=0.95
New Load.LOAD54_4 Phases=1 Bus1=54_144.2 kV=0.23 kW=1 PF=0.95
New Load.LOAD54_5 Phases=1 Bus1=54_150.3 kV=0.23 kW=1 PF=0.95
New Load.LOAD54_6 Phases=1 Bus1=54_174.2 kV=0.23 kW=1 PF=0.95
New Load.LOAD54_7 Phases=1 Bus1=54_195.3 kV=0.23 kW=1 PF=0.95
New Load.LOAD54_8 Phases=1 Bus1=54_199.1 kV=0.23 kW=1 PF=0.95
New Load.LOAD54_9 Phases=1 Bus1=54_204.3 kV=0.23 kW=1 PF=0.95
New Load.LOAD54_10 Phases=1 Bus1=54_205.1 kV=0.23 kW=1 PF=0.95
New Load.LOAD54_11 Phases=1 Bus1=54_235.3 kV=0.23 kW=1 PF=0.95
New Load.LOAD54_12 Phases=1 Bus1=54_248.2 kV=0.23 kW=1 PF=0.95
New Load.LOAD54_13 Phases=1 Bus1=54_255.1 kV=0.23 kW=1 PF=0.95
New Load.LOAD54_14 Phases=1 Bus1=54_277.3 kV=0.23 kW=1 PF=0.95
New Load.LOAD54_15 Phases=1 Bus1=54_326.1 kV=0.23 kW=1 PF=0.95
New Load.LOAD54_16 Phases=1 Bus1=54_329.1 kV=0.23 kW=1 PF=0.95
New Load.LOAD54_17 Phases=1 Bus1=54_374.2 kV=0.23 kW=1 PF=0.95
New Load.LOAD54_18 Phases=1 Bus1=54_387.2 kV=0.23 kW=1 PF=0.95
New Load.LOAD54_19 Phases=1 Bus1=54_394.3 kV=0.23 kW=1 PF=0.95
New Load.LOAD54_20 Phases=1 Bus1=54_399.3 kV=0.23 kW=1 PF=0.95
New Load.LOAD54_21 Phases=1 Bus1=54_400.3 kV=0.23 kW=1 PF=0.95
New Load.LOAD54_22 Phases=1 Bus1=54_405.1 kV=0.23 kW=1 PF=0.95
New Load.LOAD54_23 Phases=1 Bus1=54_415.1 kV=0.23 kW=1 PF=0.95
New Load.LOAD54_24 Phases=1 Bus1=54_421.3 kV=0.23 kW=1 PF=0.95
New Load.LOAD54_25 Phases=1 Bus1=54_425.2 kV=0.23 kW=1 PF=0.95
New Load.LOAD54_26 Phases=1 Bus1=54_431.1 kV=0.23 kW=1 PF=0.95
New Load.LOAD54_27 Phases=1 Bus1=54_433.2 kV=0.23 kW=1 PF=0.95
New Load.LOAD54_28 Phases=1 Bus1=54_440.2 kV=0.23 kW=1 PF=0.95
New Load.LOAD54_29 Phases=1 Bus1=54_445.1 kV=0.23 kW=1 PF=0.95
New Load.LOAD54_30 Phases=1 Bus1=54_448.1 kV=0.23 kW=1 PF=0.95
