Test_Network/condensed/network_5/Feeder_5/LinesUnq.txt
New Line.LINE55_1 Bus1=55_1 Bus2=55_2 phases=3 Linecode=.1 Length=0.49341 Units=m
New Line.LINE55_2 Bus1=55_2 Bus2=55_3 phases=3 Linecode=.1 Length=0.050922 Units=m
New Line.LINE55_3 Bus1=55_3 Bus2=55_4 phases=3 Linecode=.1 Length=0.042059 Units=m
New Line.LINE55_4 Bus1=55_4 Bus2=55_5 phases=3 Linecode=.1 Length=0.039698 Units=m
New Line.LINE55_5 Bus1=55_5 Bus2=55_6 phases=3 Linecode=.1 Length=0.052802 Units=m
New Line.LINE55_6 Bus1=55_6 Bus2=55_7 phases=3 Linecode=.1 Length=0.046518 Units=m
New Line.LINE55_7 Bus1=55_7 Bus2=55_8 phases=3 Linecode=.1 Length=0.043325 Units=m
New Line.LINE55_8 Bus1=55_8 Bus2=55_9 phases=3 Linecode=.1 Length=0.056437 Units=m
New Line.LINE55_9 Bus1=55_9 Bus2=55_10 phases=3 Linecode=.1 Length=0.067895 Units=m
New Line.LINE55_10 Bus1=55_10 Bus2=55_11 phases=3 Linecode=.1 Length=1.4959 Units=m
New Line.LINE55_11 Bus1=55_11 Bus2=55_12 phases=3 Linecode=.1 Length=0.54111 Units=m
New Line.LINE55_12 Bus1=55_12 Bus2=55_13 phases=3 Linecode=.1 Length=2.6862 Units=m
New Line.LINE55_13 Bus1=55_13 Bus2=55_14 phases=3 Linecode=.1 Length=2.3105 Units=m
New Line.LINE55_14 Bus1=55_14 Bus2=55_15 phases=3 Linecode=.1 Length=0.21766 Units=m
New Line.LINE55_15 Bus1=55_15 Bus2=55_16 phases=3 Linecode=.1 Length=0.23355 Units=m
New Line.LINE55_16 Bus1=55_16 Bus2=55_17 phases=3 Linecode=.1 Length=0.13042 Units=m
New Line.LINE55_17 Bus1=55_17 Bus2=55_18 phases=3 Linecode=.1 Length=0.077795 Units=m
New Line.LINE55_18 Bus1=55_18 Bus2=55_19 phases=3 Linecode=.1 Length=0.10469 Units=m
New Line.LINE55_19 Bus1=55_19 Bus2=55_20 phases=3 Linecode=.1 Length=0.12897 Units=m
New Line.LINE55_20 Bus1=55_20 Bus2=55_21 phases=3 Linecode=.1 Length=0.090686 Units=m
New Line.LINE55_21 Bus1=55_21 Bus2=55_22 phases=3 Linecode=.1 Length=0.11526 Units=m
New Line.LINE55_22 Bus1=55_22 Bus2=55_23 phases=3 Linecode=.1 Length=0.071561 Units=m
New Line.LINE55_23 Bus1=55_23 Bus2=55_24 phases=3 Linecode=.1 Length=0.09717 Units=m
New Line.LINE55_24 Bus1=55_24 Bus2=55_25 phases=3 Linecode=.1 Length=0.37138 Units=m
New Line.LINE55_25 Bus1=55_25 Bus2=55_26 phases=3 Linecode=5c_.06 Length=1.1758 Units=m
New Line.LINE55_26 Bus1=55_26 Bus2=55_27 phases=3 Linecode=5c_.06 Length=0.45705 Units=m
New Line.LINE55_27 Bus1=55_27 Bus2=55_28 phases=3 Linecode=5c_.06 Length=1.3653 Units=m
New Line.LINE55_28 Bus1=55_28 Bus2=55_29 phases=3 Linecode=4_SAC_PC Length=0.16346 Units=m
New Line.LINE55_29 Bus1=55_28 Bus2=55_30 phases=3 Linecode=5c_.06 Length=0.24772 Units=m
New Line.LINE55_30 Bus1=55_29 Bus2=55_31 phases=3 Linecode=4_SAC_PC Length=0.40184 Units=m
New Line.LINE55_31 Bus1=55_30 Bus2=55_32 phases=3 Linecode=5c_.06 Length=0.26683 Units=m
New Line.LINE55_32 Bus1=55_31 Bus2=55_33 phases=3 Linecode=4_SAC_PC Length=0.0664 Units=m
New Line.LINE55_33 Bus1=55_32 Bus2=55_34 phases=3 Linecode=5c_.06 Length=13.1236 Units=m
New Line.LINE55_34 Bus1=55_33 Bus2=55_35 phases=3 Linecode=4_SAC_PC Length=0.049648 Units=m
New Line.LINE55_35 Bus1=55_34 Bus2=55_36 phases=3 Linecode=5c_.06 Length=6.9223 Units=m
New Line.LINE55_36 Bus1=55_35 Bus2=55_37 phases=3 Linecode=4_SAC_PC Length=0.066707 Units=m
New Line.LINE55_37 Bus1=55_36 Bus2=55_38 phases=3 Linecode=5c_.06 Length=0.87932 Units=m
New Line.LINE55_38 Bus1=55_37 Bus2=55_39 phases=3 Linecode=4_SAC_PC Length=0.1261 Units=m
New Line.LINE55_39 Bus1=55_38 Bus2=55_40 phases=3 Linecode=5c_.06 Length=0.37537 Units=m
New Line.LINE55_40 Bus1=55_38 Bus2=55_41 phases=3 Linecode=5c_.06 Length=1.919 Units=m
New Line.LINE55_41 Bus1=55_39 Bus2=55_42 phases=3 Linecode=4_SAC_PC Length=0.21467 Units=m
New Line.LINE55_42 Bus1=55_40 Bus2=55_43 phases=3 Linecode=5c_.06 Length=0.064031 Units=m
New Line.LINE55_43 Bus1=55_41 Bus2=55_44 phases=3 Linecode=2c Length=7.4727 Units=m
New Line.LINE55_44 Bus1=55_41 Bus2=55_45 phases=3 Linecode=5c_.06 Length=6.338 Units=m
New Line.LINE55_45 Bus1=55_42 Bus2=55_46 phases=3 Linecode=4_SAC_PC Length=0.15914 Units=m
New Line.LINE55_46 Bus1=55_43 Bus2=55_47 phases=3 Linecode=5c_.06 Length=0.076157 Units=m
New Line.LINE55_47 Bus1=55_44 Bus2=55_48 phases=3 Linecode=2c Length=5.1066 Units=m
New Line.LINE55_48 Bus1=55_45 Bus2=55_49 phases=3 Linecode=2c Length=7.3182 Units=m
New Line.LINE55_49 Bus1=55_45 Bus2=55_50 phases=3 Linecode=5c_.06 Length=2.2844 Units=m
New Line.LINE55_50 Bus1=55_46 Bus2=55_51 phases=3 Linecode=4_SAC_PC Length=0.11201 Units=m
New Line.LINE55_51 Bus1=55_47 Bus2=55_52 phases=3 Linecode=5c_.06 Length=0.092196 Units=m
New Line.LINE55_52 Bus1=55_49 Bus2=55_53 phases=3 Linecode=2c Length=5.0608 Units=m
New Line.LINE55_53 Bus1=55_50 Bus2=55_54 phases=3 Linecode=5c_.06 Length=0.67683 Units=m
New Line.LINE55_54 Bus1=55_51 Bus2=55_55 phases=3 Linecode=4_SAC_PC Length=0.051884 Units=m
New Line.LINE55_55 Bus1=55_52 Bus2=55_56 phases=3 Linecode=5c_.06 Length=0.1 Units=m
New Line.LINE55_56 Bus1=55_54 Bus2=55_57 phases=3 Linecode=5c_.06 Length=0.89844 Units=m
New Line.LINE55_57 Bus1=55_54 Bus2=55_58 phases=3 Linecode=3c_95_SAC_ASN Length=0.29206 Units=m
New Line.LINE55_58 Bus1=55_55 Bus2=55_59 phases=3 Linecode=4_SAC_PC Length=0.33407 Units=m
New Line.LINE55_59 Bus1=55_56 Bus2=55_60 phases=3 Linecode=5c_.06 Length=0.17263 Units=m
New Line.LINE55_60 Bus1=55_57 Bus2=55_61 phases=3 Linecode=5c_.06 Length=2.4741 Units=m
New Line.LINE55_61 Bus1=55_58 Bus2=55_62 phases=3 Linecode=3c_95_SAC_ASN Length=0.18788 Units=m
New Line.LINE55_62 Bus1=55_60 Bus2=55_63 phases=3 Linecode=5c_.06 Length=0.17464 Units=m
New Line.LINE55_63 Bus1=55_61 Bus2=55_64 phases=3 Linecode=5c_.06 Length=2.0207 Units=m
New Line.LINE55_64 Bus1=55_62 Bus2=55_65 phases=3 Linecode=3c_95_SAC_ASN Length=0.12369 Units=m
New Line.LINE55_65 Bus1=55_63 Bus2=55_66 phases=3 Linecode=5c_.06 Length=0.47127 Units=m
New Line.LINE55_66 Bus1=55_64 Bus2=55_67 phases=3 Linecode=5c_.06 Length=0.66731 Units=m
New Line.LINE55_67 Bus1=55_65 Bus2=55_68 phases=3 Linecode=3c_95_SAC_ASN Length=0.1118 Units=m
New Line.LINE55_68 Bus1=55_67 Bus2=55_69 phases=3 Linecode=5c_.06 Length=0.45222 Units=m
New Line.LINE55_69 Bus1=55_68 Bus2=55_70 phases=3 Linecode=3c_95_SAC_ASN Length=0.19 Units=m
New Line.LINE55_70 Bus1=55_69 Bus2=55_71 phases=3 Linecode=5c_.06 Length=1.4356 Units=m
New Line.LINE55_71 Bus1=55_70 Bus2=55_72 phases=3 Linecode=3c_95_SAC_ASN Length=0.37013 Units=m
New Line.LINE55_72 Bus1=55_71 Bus2=55_73 phases=3 Linecode=5c_.06 Length=2.6744 Units=m
New Line.LINE55_73 Bus1=55_72 Bus2=55_74 phases=3 Linecode=3c_95_SAC_ASN Length=0.21378 Units=m
New Line.LINE55_74 Bus1=55_73 Bus2=55_75 phases=3 Linecode=5c_.06 Length=0.91702 Units=m
New Line.LINE55_75 Bus1=55_74 Bus2=55_76 phases=3 Linecode=3c_95_SAC_ASN Length=0.35735 Units=m
New Line.LINE55_76 Bus1=55_75 Bus2=55_77 phases=3 Linecode=4_SAC_PC Length=0.039051 Units=m
New Line.LINE55_77 Bus1=55_75 Bus2=55_78 phases=3 Linecode=5c_.06 Length=0.3455 Units=m
New Line.LINE55_78 Bus1=55_76 Bus2=55_79 phases=3 Linecode=3c_95_SAC_ASN Length=0.45354 Units=m
New Line.LINE55_79 Bus1=55_77 Bus2=55_80 phases=3 Linecode=4_SAC_PC Length=0.044721 Units=m
New Line.LINE55_80 Bus1=55_78 Bus2=55_81 phases=3 Linecode=5c_.06 Length=2.1371 Units=m
New Line.LINE55_81 Bus1=55_78 Bus2=55_82 phases=3 Linecode=5c_.06 Length=7.9198 Units=m
New Line.LINE55_82 Bus1=55_79 Bus2=55_83 phases=3 Linecode=3c_95_SAC_ASN Length=0.43738 Units=m
New Line.LINE55_83 Bus1=55_80 Bus2=55_84 phases=3 Linecode=4_SAC_PC Length=0.041231 Units=m
New Line.LINE55_84 Bus1=55_82 Bus2=55_85 phases=3 Linecode=5c_.06 Length=9.0406 Units=m
New Line.LINE55_85 Bus1=55_83 Bus2=55_86 phases=3 Linecode=3c_95_SAC_ASN Length=0.11045 Units=m
New Line.LINE55_86 Bus1=55_84 Bus2=55_87 phases=3 Linecode=4_SAC_PC Length=0.041233 Units=m
New Line.LINE55_87 Bus1=55_85 Bus2=55_88 phases=3 Linecode=5c_.06 Length=4.1155 Units=m
New Line.LINE55_88 Bus1=55_85 Bus2=55_89 phases=3 Linecode=5c_.06 Length=3.8351 Units=m
New Line.LINE55_89 Bus1=55_86 Bus2=55_90 phases=3 Linecode=3c_95_SAC_ASN Length=0.1118 Units=m
New Line.LINE55_90 Bus1=55_87 Bus2=55_91 phases=3 Linecode=4_SAC_PC Length=0.05099 Units=m
New Line.LINE55_91 Bus1=55_88 Bus2=55_92 phases=3 Linecode=5c_.06 Length=0.70711 Units=m
New Line.LINE55_92 Bus1=55_89 Bus2=55_93 phases=3 Linecode=5c_.06 Length=1.8125 Units=m
New Line.LINE55_93 Bus1=55_90 Bus2=55_94 phases=3 Linecode=3c_95_SAC_ASN Length=0.1118 Units=m
New Line.LINE55_94 Bus1=55_91 Bus2=55_95 phases=3 Linecode=4_SAC_PC Length=0.04123 Units=m
New Line.LINE55_95 Bus1=55_93 Bus2=55_96 phases=3 Linecode=25_SAC_PC Length=0.58234 Units=m
...