Test_Network/condensed/network_5/Feeder_5/LoadsCopyUnq.txt
New Load.LOAD55_1 Phases=1 Bus1=55_48.1 kV=0.23 kW=1 PF=0.95
New Load.LOAD55_2 Phases=1 Bus1=55_53.2 kV=0.23 kW=1 PF=0.95
New Load.LOAD55_3 Phases=1 Bus1=55_251.3 kV=0.23 kW=1 PF=0.95
New Load.LOAD55_4 Phases=1 Bus1=55_262.1 kV=0.23 kW=1 PF=0.95
New Load.LOAD55_5 Phases=1 Bus1=55_273.1 kV=0.23 kW=1 PF=0.95
New Load.LOAD55_6 Phases=1 Bus1=55_280.2 kV=0.23 kW=1 PF=0.95
New Load.LOAD55_7 Phases=1 Bus1=55_284.1 kV=0.23 kW=1 PF=0.95
New Load.LOAD55_8 Phases=1 Bus1=55_315.3 kV=0.23 kW=1 PF=0.95
New Load.LOAD55_9 Phases=1 Bus1=55_325.3 kV=0.23 kW=1 PF=0.95
New Load.LOAD55_10 Phases=1 Bus1=55_347.3 kV=0.23 kW=1 PF=0.95
New Load.LOAD55_11 Phases=1 Bus1=55_360.2 kV=0.23 kW=1 PF=0.95
New Load.LOAD55_12 Phases=1 Bus1=55_377.3 kV=0.23 kW=1 PF=0.95
New Load.LOAD55_13 Phases=1 Bus1=55_394.3 kV=0.23 kW=1 PF=0.95
New Load.LOAD55_14 Phases=1 Bus1=55_516.3 kV=0.23 kW=1 PF=0.95
New Load.LOAD55_15 Phases=1 Bus1=55_538.1 kV=0.23 kW=1 PF=0.95
New Load.LOAD55_16 Phases=1 Bus1=55_551.2 kV=0.23 kW=1 PF=0.95
New Load.LOAD55_17 Phases=1 Bus1=55_597.1 kV=0.23 kW=1 PF=0.95
New Load.LOAD55_18 Phases=1 Bus1=55_615.2 kV=0.23 kW=1 PF=0.95
New Load.LOAD55_19 Phases=1 Bus1=55_621.1 kV=0.23 kW=1 PF=0.95
New Load.LOAD55_20 Phases=1 Bus1=55_645.1 kV=0.23 kW=1 PF=0.95
New Load.LOAD55_21 Phases=1 Bus1=55_663.2 kV=0.23 kW=1 PF=0.95
New Load.LOAD55_22 Phases=1 Bus1=55_667.1 kV=0.23 kW=1 PF=0.95
New Load.LOAD55_23 Phases=1 Bus1=55_676.2 kV=0.23 kW=1 PF=0.95
New Load.LOAD55_24 Phases=1 Bus1=55_688.1 kV=0.23 kW=1 PF=0.95
New Load.LOAD55_25 Phases=1 Bus1=55_707.3 kV=0.23 kW=1 PF=0.95
New Load.LOAD55_26 Phases=1 Bus1=55_734.3 kV=0.23 kW=1 PF=0.95
New Load.LOAD55_27 Phases=1 Bus1=55_741.2 kV=0.23 kW=1 PF=0.95
New Load.LOAD55_28 Phases=1 Bus1=55_742.1 kV=0.23 kW=1 PF=0.95
New Load.LOAD55_29 Phases=1 Bus1=55_743.2 kV=0.23 kW=1 PF=0.95
New Load.LOAD55_30 Phases=1 Bus1=55_744.2 kV=0.23 kW=1 PF=0.95
New Load.LOAD55_31 Phases=1 Bus1=55_747.1 kV=0.23 kW=1 PF=0.95
New Load.LOAD55_32 Phases=1 Bus1=55_759.3 kV=0.23 kW=1 PF=0.95
New Load.LOAD55_33 Phases=1 Bus1=55_776.1 kV=0.23 kW=1 PF=0.95
New Load.LOAD55_34 Phases=1 Bus1=55_779.1 kV=0.23 kW=1 PF=0.95
New Load.LOAD55_35 Phases=1 Bus1=55_780.1 kV=0.23 kW=1 PF=0.95
New Load.LOAD55_36 Phases=1 Bus1=55_820.2 kV=0.23 kW=1 PF=0.95
New Load.LOAD55_37 Phases=1 Bus1=55_918.1 kV=0.23 kW=1 PF=0.95
New Load.LOAD55_38 Phases=1 Bus1=55_919.1 kV=0.23 kW=1 PF=0.95
New Load.LOAD55_39 Phases=1 Bus1=55_940.3 kV=0.23 kW=1 PF=0.95
New Load.LOAD55_40 Phases=1 Bus1=55_967.2 kV=0.23 kW=1 PF=0.95
New Load.LOAD55_41 Phases=1 Bus1=55_1019.1 kV=0.23 kW=1 PF=0.95
New Load.LOAD55_42 Phases=1 Bus1=55_1027.1 kV=0.23 kW=1 PF=0.95
New Load.LOAD55_43 Phases=1 Bus1=55_1066.2 kV=0.23 kW=1 PF=0.95
New Load.LOAD55_44 Phases=1 Bus1=55_1091.1 kV=0.23 kW=1 PF=0.95
New Load.LOAD55_45 Phases=1 Bus1=55_1098.2 kV=0.23 kW=1 PF=0.95
New Load.LOAD55_46 Phases=1 Bus1=55_1108.3 kV=0.23 kW=1 PF=0.95
New Load.LOAD55_47 Phases=1 Bus1=55_1132.2 kV=0.23 kW=1 PF=0.95
New Load.LOAD55_48 Phases=1 Bus1=55_1160.1 kV=0.23 kW=1 PF=0.95
New Load.LOAD55_49 Phases=1 Bus1=55_1173.2 kV=0.23 kW=1 PF=0.95
